/*---------------------------------------------------------------------------*\
| =========                 |                                                 |
| \\      /  F ield         | OpenFOAM: The Open Source CFD Toolbox           |
|  \\    /   O peration     | Version:  2.3.0                                 |
|   \\  /    A nd           | Web:      www.OpenFOAM.org                      |
|    \\/     M anipulation  |                                                 |
\*---------------------------------------------------------------------------*/
Build  : 2.3.0-f5222ca19ce6
Exec   : /home/akadar/OpenFOAM/akadar-2.3.0/platforms/linux64GccDPOpt/bin/NOx
Date   : Jun 24 2015
Time   : 21:52:35
Host   : "tud205686"
PID    : 5335
Case   : /data/akadar/testNOx/SFD
nProcs : 1
sigFpe : Enabling floating point exception trapping (FOAM_SIGFPE).
fileModificationChecking : Monitoring run-time modified files using timeStampMaster
allowSystemOperations : Disallowing user-supplied system call operations

// * * * * * * * * * * * * * * * * * * * * * * * * * * * * * * * * * * * * * //
Create time

Create mesh for time = 0

Assigning 0 to sourceThermalNO

Assigning 0 to sourcePromptNO

Reading field p

Reading field T

Reading field U

Reading turbulent viscosity mut

Reading thermoProperties

Reading Molar Masses

Reading Sutherland Transport Coefficients

Reading Scmdit number and turbulent Scmidt number

Reading parameters for prompt NOx

Thermal NOx will be calculated 

Prompt NOx will not be calculated 

Reading/calculating face flux field phi

No finite volume options present


SIMPLE: no convergence criteria found. Calculations will run for 1 steps.

Courant Number mean: 0.0274102 max: 1.74853
Reading field CH4

Reading field O2

Reading field CO2

Reading field H2O

Reading field N2

Reading field NO

Gas constant Rgas [1 2 -2 -1 -1 0 0] 8.31446

Reading field O if available

Reading field OH if available

Pre-Processing Completed .................................................................................

Time = 0.0001

DILUPBiCG:  Solving for NO, Initial residual = 1, Final residual = 6.83163e-10, No Iterations 13
Source for ThermalNO updated
Time = 0.0002

DILUPBiCG:  Solving for NO, Initial residual = 0.00366354, Final residual = 1.85571e-10, No Iterations 10
Source for ThermalNO updated
Time = 0.0003

DILUPBiCG:  Solving for NO, Initial residual = 0.00183767, Final residual = 6.92203e-10, No Iterations 9
Source for ThermalNO updated
Time = 0.0004

DILUPBiCG:  Solving for NO, Initial residual = 0.00122251, Final residual = 4.25552e-10, No Iterations 9
Source for ThermalNO updated
Time = 0.0005

DILUPBiCG:  Solving for NO, Initial residual = 0.000921463, Final residual = 3.4176e-10, No Iterations 9
Source for ThermalNO updated
Time = 0.0006

DILUPBiCG:  Solving for NO, Initial residual = 0.000741087, Final residual = 1.19963e-10, No Iterations 9
Source for ThermalNO updated
Time = 0.0007

DILUPBiCG:  Solving for NO, Initial residual = 0.00062161, Final residual = 8.73887e-10, No Iterations 8
Source for ThermalNO updated
Time = 0.0008

DILUPBiCG:  Solving for NO, Initial residual = 0.000536374, Final residual = 8.06074e-10, No Iterations 8
Source for ThermalNO updated
Time = 0.0009

DILUPBiCG:  Solving for NO, Initial residual = 0.000472521, Final residual = 6.23072e-10, No Iterations 8
Source for ThermalNO updated
Time = 0.001

DILUPBiCG:  Solving for NO, Initial residual = 0.000423062, Final residual = 4.95863e-10, No Iterations 8
Source for ThermalNO updated
Time = 0.0011

DILUPBiCG:  Solving for NO, Initial residual = 0.000383952, Final residual = 4.80361e-10, No Iterations 8
Source for ThermalNO updated
Time = 0.0012

DILUPBiCG:  Solving for NO, Initial residual = 0.000351918, Final residual = 4.84689e-10, No Iterations 8
Source for ThermalNO updated
Time = 0.0013

DILUPBiCG:  Solving for NO, Initial residual = 0.000324991, Final residual = 5.10684e-10, No Iterations 8
Source for ThermalNO updated
Time = 0.0014

DILUPBiCG:  Solving for NO, Initial residual = 0.00030208, Final residual = 5.64075e-10, No Iterations 8
Source for ThermalNO updated
Time = 0.0015

DILUPBiCG:  Solving for NO, Initial residual = 0.000282384, Final residual = 6.61452e-10, No Iterations 8
Source for ThermalNO updated
Time = 0.0016

DILUPBiCG:  Solving for NO, Initial residual = 0.000265355, Final residual = 8.45841e-10, No Iterations 8
Source for ThermalNO updated
Time = 0.0017

DILUPBiCG:  Solving for NO, Initial residual = 0.000250612, Final residual = 5.64786e-11, No Iterations 9
Source for ThermalNO updated
Time = 0.0018

DILUPBiCG:  Solving for NO, Initial residual = 0.000237591, Final residual = 9.91981e-10, No Iterations 7
Source for ThermalNO updated
Time = 0.0019

DILUPBiCG:  Solving for NO, Initial residual = 0.00022602, Final residual = 5.03784e-11, No Iterations 9
Source for ThermalNO updated
Time = 0.002

DILUPBiCG:  Solving for NO, Initial residual = 0.000215617, Final residual = 4.84005e-11, No Iterations 9
Source for ThermalNO updated
Time = 0.0021

DILUPBiCG:  Solving for NO, Initial residual = 0.000206263, Final residual = 8.29627e-10, No Iterations 8
Source for ThermalNO updated
Time = 0.0022

DILUPBiCG:  Solving for NO, Initial residual = 0.000197831, Final residual = 5.59176e-10, No Iterations 8
Source for ThermalNO updated
Time = 0.0023

DILUPBiCG:  Solving for NO, Initial residual = 0.000190174, Final residual = 4.16717e-10, No Iterations 8
Source for ThermalNO updated
Time = 0.0024

DILUPBiCG:  Solving for NO, Initial residual = 0.000183164, Final residual = 3.29445e-10, No Iterations 8
Source for ThermalNO updated
Time = 0.0025

DILUPBiCG:  Solving for NO, Initial residual = 0.000176718, Final residual = 2.71132e-10, No Iterations 8
Source for ThermalNO updated
Time = 0.0026

DILUPBiCG:  Solving for NO, Initial residual = 0.000170837, Final residual = 2.30449e-10, No Iterations 8
Source for ThermalNO updated
Time = 0.0027

DILUPBiCG:  Solving for NO, Initial residual = 0.000165383, Final residual = 2.01774e-10, No Iterations 8
Source for ThermalNO updated
Time = 0.0028

DILUPBiCG:  Solving for NO, Initial residual = 0.000160315, Final residual = 1.8152e-10, No Iterations 8
Source for ThermalNO updated
Time = 0.0029

DILUPBiCG:  Solving for NO, Initial residual = 0.000155622, Final residual = 1.68074e-10, No Iterations 8
Source for ThermalNO updated
Time = 0.003

DILUPBiCG:  Solving for NO, Initial residual = 0.000151242, Final residual = 1.60682e-10, No Iterations 8
Source for ThermalNO updated
Time = 0.0031

DILUPBiCG:  Solving for NO, Initial residual = 0.000147167, Final residual = 1.57568e-10, No Iterations 8
Source for ThermalNO updated
Time = 0.0032

DILUPBiCG:  Solving for NO, Initial residual = 0.000143357, Final residual = 1.60473e-10, No Iterations 8
Source for ThermalNO updated
Time = 0.0033

DILUPBiCG:  Solving for NO, Initial residual = 0.000139762, Final residual = 1.7338e-10, No Iterations 8
Source for ThermalNO updated
Time = 0.0034

DILUPBiCG:  Solving for NO, Initial residual = 0.0001364, Final residual = 1.93661e-10, No Iterations 8
Source for ThermalNO updated
Time = 0.0035

DILUPBiCG:  Solving for NO, Initial residual = 0.000133237, Final residual = 2.2146e-10, No Iterations 8
Source for ThermalNO updated
Time = 0.0036

DILUPBiCG:  Solving for NO, Initial residual = 0.000130252, Final residual = 2.6111e-10, No Iterations 8
Source for ThermalNO updated
Time = 0.0037

DILUPBiCG:  Solving for NO, Initial residual = 0.000127416, Final residual = 3.20382e-10, No Iterations 8
Source for ThermalNO updated
Time = 0.0038

DILUPBiCG:  Solving for NO, Initial residual = 0.000124738, Final residual = 4.14877e-10, No Iterations 8
Source for ThermalNO updated
Time = 0.0039

DILUPBiCG:  Solving for NO, Initial residual = 0.000122196, Final residual = 5.83462e-10, No Iterations 8
Source for ThermalNO updated
Time = 0.004

DILUPBiCG:  Solving for NO, Initial residual = 0.000119805, Final residual = 9.65063e-10, No Iterations 8
Source for ThermalNO updated
Time = 0.0041

DILUPBiCG:  Solving for NO, Initial residual = 0.000117521, Final residual = 7.72639e-11, No Iterations 9
Source for ThermalNO updated
Time = 0.0042

DILUPBiCG:  Solving for NO, Initial residual = 0.000115335, Final residual = 7.0466e-11, No Iterations 9
Source for ThermalNO updated
Time = 0.0043

DILUPBiCG:  Solving for NO, Initial residual = 0.000113251, Final residual = 6.51869e-11, No Iterations 9
Source for ThermalNO updated
Time = 0.0044

DILUPBiCG:  Solving for NO, Initial residual = 0.000111266, Final residual = 6.81442e-10, No Iterations 8
Source for ThermalNO updated
Time = 0.0045

DILUPBiCG:  Solving for NO, Initial residual = 0.000109381, Final residual = 4.88446e-10, No Iterations 8
Source for ThermalNO updated
Time = 0.0046

DILUPBiCG:  Solving for NO, Initial residual = 0.000107576, Final residual = 9.53306e-10, No Iterations 7
Source for ThermalNO updated
Time = 0.0047

DILUPBiCG:  Solving for NO, Initial residual = 0.000105842, Final residual = 8.18938e-10, No Iterations 7
Source for ThermalNO updated
Time = 0.0048

DILUPBiCG:  Solving for NO, Initial residual = 0.000104178, Final residual = 7.27286e-10, No Iterations 7
Source for ThermalNO updated
Time = 0.0049

DILUPBiCG:  Solving for NO, Initial residual = 0.00010258, Final residual = 6.60555e-10, No Iterations 7
Source for ThermalNO updated
Time = 0.005

DILUPBiCG:  Solving for NO, Initial residual = 0.000101052, Final residual = 6.09386e-10, No Iterations 7
Source for ThermalNO updated
Time = 0.0051

DILUPBiCG:  Solving for NO, Initial residual = 9.95841e-05, Final residual = 5.68938e-10, No Iterations 7
Source for ThermalNO updated
Time = 0.0052

DILUPBiCG:  Solving for NO, Initial residual = 9.81733e-05, Final residual = 5.36023e-10, No Iterations 7
Source for ThermalNO updated
Time = 0.0053

DILUPBiCG:  Solving for NO, Initial residual = 9.68125e-05, Final residual = 5.08798e-10, No Iterations 7
Source for ThermalNO updated
Time = 0.0054

DILUPBiCG:  Solving for NO, Initial residual = 9.5501e-05, Final residual = 4.86017e-10, No Iterations 7
Source for ThermalNO updated
Time = 0.0055

DILUPBiCG:  Solving for NO, Initial residual = 9.42355e-05, Final residual = 4.6702e-10, No Iterations 7
Source for ThermalNO updated
Time = 0.0056

DILUPBiCG:  Solving for NO, Initial residual = 9.30148e-05, Final residual = 4.51172e-10, No Iterations 7
Source for ThermalNO updated
Time = 0.0057

DILUPBiCG:  Solving for NO, Initial residual = 9.18412e-05, Final residual = 4.37755e-10, No Iterations 7
Source for ThermalNO updated
Time = 0.0058

DILUPBiCG:  Solving for NO, Initial residual = 9.07054e-05, Final residual = 4.26322e-10, No Iterations 7
Source for ThermalNO updated
Time = 0.0059

DILUPBiCG:  Solving for NO, Initial residual = 8.96081e-05, Final residual = 4.16543e-10, No Iterations 7
Source for ThermalNO updated
Time = 0.006

DILUPBiCG:  Solving for NO, Initial residual = 8.85446e-05, Final residual = 4.0854e-10, No Iterations 7
Source for ThermalNO updated
Time = 0.0061

DILUPBiCG:  Solving for NO, Initial residual = 8.75147e-05, Final residual = 4.02136e-10, No Iterations 7
Source for ThermalNO updated
Time = 0.0062

DILUPBiCG:  Solving for NO, Initial residual = 8.65179e-05, Final residual = 3.96873e-10, No Iterations 7
Source for ThermalNO updated
Time = 0.0063

DILUPBiCG:  Solving for NO, Initial residual = 8.55537e-05, Final residual = 3.92783e-10, No Iterations 7
Source for ThermalNO updated
Time = 0.0064

DILUPBiCG:  Solving for NO, Initial residual = 8.46195e-05, Final residual = 3.89601e-10, No Iterations 7
Source for ThermalNO updated
Time = 0.0065

DILUPBiCG:  Solving for NO, Initial residual = 8.37125e-05, Final residual = 3.87462e-10, No Iterations 7
Source for ThermalNO updated
Time = 0.0066

DILUPBiCG:  Solving for NO, Initial residual = 8.28322e-05, Final residual = 3.86165e-10, No Iterations 7
Source for ThermalNO updated
Time = 0.0067

DILUPBiCG:  Solving for NO, Initial residual = 8.1976e-05, Final residual = 3.85667e-10, No Iterations 7
Source for ThermalNO updated
Time = 0.0068

DILUPBiCG:  Solving for NO, Initial residual = 8.11435e-05, Final residual = 3.85968e-10, No Iterations 7
Source for ThermalNO updated
Time = 0.0069

DILUPBiCG:  Solving for NO, Initial residual = 8.03367e-05, Final residual = 3.87029e-10, No Iterations 7
Source for ThermalNO updated
Time = 0.007

DILUPBiCG:  Solving for NO, Initial residual = 7.95518e-05, Final residual = 3.8886e-10, No Iterations 7
Source for ThermalNO updated
Time = 0.0071

DILUPBiCG:  Solving for NO, Initial residual = 7.87895e-05, Final residual = 3.91545e-10, No Iterations 7
Source for ThermalNO updated
Time = 0.0072

DILUPBiCG:  Solving for NO, Initial residual = 7.8046e-05, Final residual = 3.95121e-10, No Iterations 7
Source for ThermalNO updated
Time = 0.0073

DILUPBiCG:  Solving for NO, Initial residual = 7.73212e-05, Final residual = 3.99964e-10, No Iterations 7
Source for ThermalNO updated
Time = 0.0074

DILUPBiCG:  Solving for NO, Initial residual = 7.66152e-05, Final residual = 4.06204e-10, No Iterations 7
Source for ThermalNO updated
Time = 0.0075

DILUPBiCG:  Solving for NO, Initial residual = 7.59289e-05, Final residual = 4.14038e-10, No Iterations 7
Source for ThermalNO updated
Time = 0.0076

DILUPBiCG:  Solving for NO, Initial residual = 7.52599e-05, Final residual = 4.23856e-10, No Iterations 7
Source for ThermalNO updated
Time = 0.0077

DILUPBiCG:  Solving for NO, Initial residual = 7.46075e-05, Final residual = 4.35838e-10, No Iterations 7
Source for ThermalNO updated
Time = 0.0078

DILUPBiCG:  Solving for NO, Initial residual = 7.39704e-05, Final residual = 4.50196e-10, No Iterations 7
Source for ThermalNO updated
Time = 0.0079

DILUPBiCG:  Solving for NO, Initial residual = 7.33483e-05, Final residual = 4.67254e-10, No Iterations 7
Source for ThermalNO updated
Time = 0.008

DILUPBiCG:  Solving for NO, Initial residual = 7.27418e-05, Final residual = 4.87492e-10, No Iterations 7
Source for ThermalNO updated
Time = 0.0081

DILUPBiCG:  Solving for NO, Initial residual = 7.21504e-05, Final residual = 5.11597e-10, No Iterations 7
Source for ThermalNO updated
Time = 0.0082

DILUPBiCG:  Solving for NO, Initial residual = 7.15724e-05, Final residual = 5.40199e-10, No Iterations 7
Source for ThermalNO updated
Time = 0.0083

DILUPBiCG:  Solving for NO, Initial residual = 7.10079e-05, Final residual = 5.74364e-10, No Iterations 7
Source for ThermalNO updated
Time = 0.0084

DILUPBiCG:  Solving for NO, Initial residual = 7.04559e-05, Final residual = 6.15338e-10, No Iterations 7
Source for ThermalNO updated
Time = 0.0085

DILUPBiCG:  Solving for NO, Initial residual = 6.99167e-05, Final residual = 6.64896e-10, No Iterations 7
Source for ThermalNO updated
Time = 0.0086

DILUPBiCG:  Solving for NO, Initial residual = 6.93899e-05, Final residual = 7.25128e-10, No Iterations 7
Source for ThermalNO updated
Time = 0.0087

DILUPBiCG:  Solving for NO, Initial residual = 6.88752e-05, Final residual = 7.9897e-10, No Iterations 7
Source for ThermalNO updated
Time = 0.0088

DILUPBiCG:  Solving for NO, Initial residual = 6.83716e-05, Final residual = 8.90878e-10, No Iterations 7
Source for ThermalNO updated
Time = 0.0089

DILUPBiCG:  Solving for NO, Initial residual = 6.78793e-05, Final residual = 4.86478e-11, No Iterations 8
Source for ThermalNO updated
Time = 0.009

DILUPBiCG:  Solving for NO, Initial residual = 6.73977e-05, Final residual = 5.0083e-11, No Iterations 8
Source for ThermalNO updated
Time = 0.0091

DILUPBiCG:  Solving for NO, Initial residual = 6.69269e-05, Final residual = 5.16826e-11, No Iterations 8
Source for ThermalNO updated
Time = 0.0092

DILUPBiCG:  Solving for NO, Initial residual = 6.64661e-05, Final residual = 5.3479e-11, No Iterations 8
Source for ThermalNO updated
Time = 0.0093

DILUPBiCG:  Solving for NO, Initial residual = 6.60155e-05, Final residual = 5.5519e-11, No Iterations 8
Source for ThermalNO updated
Time = 0.0094

DILUPBiCG:  Solving for NO, Initial residual = 6.55745e-05, Final residual = 5.78147e-11, No Iterations 8
Source for ThermalNO updated
Time = 0.0095

DILUPBiCG:  Solving for NO, Initial residual = 6.5143e-05, Final residual = 6.04057e-11, No Iterations 8
Source for ThermalNO updated
Time = 0.0096

DILUPBiCG:  Solving for NO, Initial residual = 6.47208e-05, Final residual = 6.33347e-11, No Iterations 8
Source for ThermalNO updated
Time = 0.0097

DILUPBiCG:  Solving for NO, Initial residual = 6.43076e-05, Final residual = 6.66597e-11, No Iterations 8
Source for ThermalNO updated
Time = 0.0098

DILUPBiCG:  Solving for NO, Initial residual = 6.3903e-05, Final residual = 7.04552e-11, No Iterations 8
Source for ThermalNO updated
Time = 0.0099

DILUPBiCG:  Solving for NO, Initial residual = 6.35072e-05, Final residual = 7.47737e-11, No Iterations 8
Source for ThermalNO updated
Time = 0.01

DILUPBiCG:  Solving for NO, Initial residual = 6.31196e-05, Final residual = 7.96876e-11, No Iterations 8
Source for ThermalNO updated
Time = 0.0101

DILUPBiCG:  Solving for NO, Initial residual = 6.27402e-05, Final residual = 8.52818e-11, No Iterations 8
Source for ThermalNO updated
Time = 0.0102

DILUPBiCG:  Solving for NO, Initial residual = 6.23688e-05, Final residual = 9.16292e-11, No Iterations 8
Source for ThermalNO updated
Time = 0.0103

DILUPBiCG:  Solving for NO, Initial residual = 6.2005e-05, Final residual = 9.87512e-11, No Iterations 8
Source for ThermalNO updated
Time = 0.0104

DILUPBiCG:  Solving for NO, Initial residual = 6.16486e-05, Final residual = 1.06618e-10, No Iterations 8
Source for ThermalNO updated
Time = 0.0105

DILUPBiCG:  Solving for NO, Initial residual = 6.12998e-05, Final residual = 1.15191e-10, No Iterations 8
Source for ThermalNO updated
Time = 0.0106

DILUPBiCG:  Solving for NO, Initial residual = 6.09581e-05, Final residual = 1.24238e-10, No Iterations 8
Source for ThermalNO updated
Time = 0.0107

DILUPBiCG:  Solving for NO, Initial residual = 6.06234e-05, Final residual = 1.32786e-10, No Iterations 8
Source for ThermalNO updated
Time = 0.0108

DILUPBiCG:  Solving for NO, Initial residual = 6.02956e-05, Final residual = 1.39268e-10, No Iterations 8
Source for ThermalNO updated
Time = 0.0109

DILUPBiCG:  Solving for NO, Initial residual = 5.99742e-05, Final residual = 7.71652e-10, No Iterations 7
Source for ThermalNO updated
Time = 0.011

DILUPBiCG:  Solving for NO, Initial residual = 5.96593e-05, Final residual = 4.3989e-10, No Iterations 7
Source for ThermalNO updated
Time = 0.0111

DILUPBiCG:  Solving for NO, Initial residual = 5.93508e-05, Final residual = 2.53396e-10, No Iterations 7
Source for ThermalNO updated
Time = 0.0112

DILUPBiCG:  Solving for NO, Initial residual = 5.90484e-05, Final residual = 1.40889e-10, No Iterations 7
Source for ThermalNO updated
Time = 0.0113

DILUPBiCG:  Solving for NO, Initial residual = 5.87521e-05, Final residual = 7.46093e-11, No Iterations 7
Source for ThermalNO updated
Time = 0.0114

DILUPBiCG:  Solving for NO, Initial residual = 5.84616e-05, Final residual = 1.20395e-10, No Iterations 7
Source for ThermalNO updated
Time = 0.0115

DILUPBiCG:  Solving for NO, Initial residual = 5.81767e-05, Final residual = 1.80511e-10, No Iterations 7
Source for ThermalNO updated
Time = 0.0116

DILUPBiCG:  Solving for NO, Initial residual = 5.78974e-05, Final residual = 2.41265e-10, No Iterations 7
Source for ThermalNO updated
Time = 0.0117

DILUPBiCG:  Solving for NO, Initial residual = 5.76235e-05, Final residual = 3.093e-10, No Iterations 7
Source for ThermalNO updated
Time = 0.0118

DILUPBiCG:  Solving for NO, Initial residual = 5.7355e-05, Final residual = 3.9536e-10, No Iterations 7
Source for ThermalNO updated
Time = 0.0119

DILUPBiCG:  Solving for NO, Initial residual = 5.70915e-05, Final residual = 5.18686e-10, No Iterations 7
Source for ThermalNO updated
Time = 0.012

DILUPBiCG:  Solving for NO, Initial residual = 5.68331e-05, Final residual = 7.2468e-10, No Iterations 7
Source for ThermalNO updated
Time = 0.0121

DILUPBiCG:  Solving for NO, Initial residual = 5.65795e-05, Final residual = 9.68402e-11, No Iterations 8
Source for ThermalNO updated
Time = 0.0122

DILUPBiCG:  Solving for NO, Initial residual = 5.63307e-05, Final residual = 9.78895e-11, No Iterations 8
Source for ThermalNO updated
Time = 0.0123

DILUPBiCG:  Solving for NO, Initial residual = 5.60865e-05, Final residual = 9.7979e-11, No Iterations 8
Source for ThermalNO updated
Time = 0.0124

DILUPBiCG:  Solving for NO, Initial residual = 5.58468e-05, Final residual = 9.74631e-11, No Iterations 8
Source for ThermalNO updated
Time = 0.0125

DILUPBiCG:  Solving for NO, Initial residual = 5.56116e-05, Final residual = 6.09138e-10, No Iterations 6
Source for ThermalNO updated
Time = 0.0126

DILUPBiCG:  Solving for NO, Initial residual = 5.53806e-05, Final residual = 7.45026e-10, No Iterations 7
Source for ThermalNO updated
Time = 0.0127

DILUPBiCG:  Solving for NO, Initial residual = 5.51537e-05, Final residual = 5.94628e-10, No Iterations 7
Source for ThermalNO updated
Time = 0.0128

DILUPBiCG:  Solving for NO, Initial residual = 5.49308e-05, Final residual = 4.98635e-10, No Iterations 7
Source for ThermalNO updated
Time = 0.0129

DILUPBiCG:  Solving for NO, Initial residual = 5.4712e-05, Final residual = 4.32697e-10, No Iterations 7
Source for ThermalNO updated
Time = 0.013

DILUPBiCG:  Solving for NO, Initial residual = 5.44969e-05, Final residual = 3.84515e-10, No Iterations 7
Source for ThermalNO updated
Time = 0.0131

DILUPBiCG:  Solving for NO, Initial residual = 5.42857e-05, Final residual = 3.47479e-10, No Iterations 7
Source for ThermalNO updated
Time = 0.0132

DILUPBiCG:  Solving for NO, Initial residual = 5.4078e-05, Final residual = 3.17894e-10, No Iterations 7
Source for ThermalNO updated
Time = 0.0133

DILUPBiCG:  Solving for NO, Initial residual = 5.38738e-05, Final residual = 2.93521e-10, No Iterations 7
Source for ThermalNO updated
Time = 0.0134

DILUPBiCG:  Solving for NO, Initial residual = 5.36732e-05, Final residual = 2.72885e-10, No Iterations 7
Source for ThermalNO updated
Time = 0.0135

DILUPBiCG:  Solving for NO, Initial residual = 5.3476e-05, Final residual = 2.54962e-10, No Iterations 7
Source for ThermalNO updated
Time = 0.0136

DILUPBiCG:  Solving for NO, Initial residual = 5.3282e-05, Final residual = 2.3907e-10, No Iterations 7
Source for ThermalNO updated
Time = 0.0137

DILUPBiCG:  Solving for NO, Initial residual = 5.30911e-05, Final residual = 2.24745e-10, No Iterations 7
Source for ThermalNO updated
Time = 0.0138

DILUPBiCG:  Solving for NO, Initial residual = 5.29032e-05, Final residual = 2.11678e-10, No Iterations 7
Source for ThermalNO updated
Time = 0.0139

DILUPBiCG:  Solving for NO, Initial residual = 5.27182e-05, Final residual = 1.99614e-10, No Iterations 7
Source for ThermalNO updated
Time = 0.014

DILUPBiCG:  Solving for NO, Initial residual = 5.25362e-05, Final residual = 1.88323e-10, No Iterations 7
Source for ThermalNO updated
Time = 0.0141

DILUPBiCG:  Solving for NO, Initial residual = 5.23569e-05, Final residual = 1.77658e-10, No Iterations 7
Source for ThermalNO updated
Time = 0.0142

DILUPBiCG:  Solving for NO, Initial residual = 5.21804e-05, Final residual = 1.67506e-10, No Iterations 7
Source for ThermalNO updated
Time = 0.0143

DILUPBiCG:  Solving for NO, Initial residual = 5.20065e-05, Final residual = 1.57798e-10, No Iterations 7
Source for ThermalNO updated
Time = 0.0144

DILUPBiCG:  Solving for NO, Initial residual = 5.18352e-05, Final residual = 1.48484e-10, No Iterations 7
Source for ThermalNO updated
Time = 0.0145

DILUPBiCG:  Solving for NO, Initial residual = 5.16663e-05, Final residual = 1.39541e-10, No Iterations 7
Source for ThermalNO updated
Time = 0.0146

DILUPBiCG:  Solving for NO, Initial residual = 5.14998e-05, Final residual = 1.30974e-10, No Iterations 7
Source for ThermalNO updated
Time = 0.0147

DILUPBiCG:  Solving for NO, Initial residual = 5.13357e-05, Final residual = 1.22789e-10, No Iterations 7
Source for ThermalNO updated
Time = 0.0148

DILUPBiCG:  Solving for NO, Initial residual = 5.11738e-05, Final residual = 1.14992e-10, No Iterations 7
Source for ThermalNO updated
Time = 0.0149

DILUPBiCG:  Solving for NO, Initial residual = 5.1014e-05, Final residual = 1.07623e-10, No Iterations 7
Source for ThermalNO updated
Time = 0.015

DILUPBiCG:  Solving for NO, Initial residual = 5.08563e-05, Final residual = 1.00744e-10, No Iterations 7
Source for ThermalNO updated
Time = 0.0151

DILUPBiCG:  Solving for NO, Initial residual = 5.07007e-05, Final residual = 9.44225e-11, No Iterations 7
Source for ThermalNO updated
Time = 0.0152

DILUPBiCG:  Solving for NO, Initial residual = 5.0547e-05, Final residual = 8.88718e-11, No Iterations 7
Source for ThermalNO updated
Time = 0.0153

DILUPBiCG:  Solving for NO, Initial residual = 5.03952e-05, Final residual = 8.4232e-11, No Iterations 7
Source for ThermalNO updated
Time = 0.0154

DILUPBiCG:  Solving for NO, Initial residual = 5.02452e-05, Final residual = 8.03845e-11, No Iterations 7
Source for ThermalNO updated
Time = 0.0155

DILUPBiCG:  Solving for NO, Initial residual = 5.0097e-05, Final residual = 7.71959e-11, No Iterations 7
Source for ThermalNO updated
Time = 0.0156

DILUPBiCG:  Solving for NO, Initial residual = 4.99505e-05, Final residual = 7.46094e-11, No Iterations 7
Source for ThermalNO updated
Time = 0.0157

DILUPBiCG:  Solving for NO, Initial residual = 4.98056e-05, Final residual = 7.27034e-11, No Iterations 7
Source for ThermalNO updated
Time = 0.0158

DILUPBiCG:  Solving for NO, Initial residual = 4.96622e-05, Final residual = 7.16459e-11, No Iterations 7
Source for ThermalNO updated
Time = 0.0159

DILUPBiCG:  Solving for NO, Initial residual = 4.95203e-05, Final residual = 7.19345e-11, No Iterations 7
Source for ThermalNO updated
Time = 0.016

DILUPBiCG:  Solving for NO, Initial residual = 4.93798e-05, Final residual = 7.44504e-11, No Iterations 7
Source for ThermalNO updated
Time = 0.0161

DILUPBiCG:  Solving for NO, Initial residual = 4.92407e-05, Final residual = 7.90334e-11, No Iterations 7
Source for ThermalNO updated
Time = 0.0162

DILUPBiCG:  Solving for NO, Initial residual = 4.91029e-05, Final residual = 8.62421e-11, No Iterations 7
Source for ThermalNO updated
Time = 0.0163

DILUPBiCG:  Solving for NO, Initial residual = 4.89664e-05, Final residual = 9.67941e-11, No Iterations 7
Source for ThermalNO updated
Time = 0.0164

DILUPBiCG:  Solving for NO, Initial residual = 4.88311e-05, Final residual = 1.12259e-10, No Iterations 7
Source for ThermalNO updated
Time = 0.0165

DILUPBiCG:  Solving for NO, Initial residual = 4.8697e-05, Final residual = 1.33803e-10, No Iterations 7
Source for ThermalNO updated
Time = 0.0166

DILUPBiCG:  Solving for NO, Initial residual = 4.85639e-05, Final residual = 1.64034e-10, No Iterations 7
Source for ThermalNO updated
Time = 0.0167

DILUPBiCG:  Solving for NO, Initial residual = 4.84319e-05, Final residual = 2.0727e-10, No Iterations 7
Source for ThermalNO updated
Time = 0.0168

DILUPBiCG:  Solving for NO, Initial residual = 4.83009e-05, Final residual = 2.70705e-10, No Iterations 7
Source for ThermalNO updated
Time = 0.0169

DILUPBiCG:  Solving for NO, Initial residual = 4.81709e-05, Final residual = 3.69386e-10, No Iterations 7
Source for ThermalNO updated
Time = 0.017

DILUPBiCG:  Solving for NO, Initial residual = 4.80417e-05, Final residual = 5.3996e-10, No Iterations 7
Source for ThermalNO updated
Time = 0.0171

DILUPBiCG:  Solving for NO, Initial residual = 4.79134e-05, Final residual = 8.98414e-10, No Iterations 7
Source for ThermalNO updated
Time = 0.0172

DILUPBiCG:  Solving for NO, Initial residual = 4.77859e-05, Final residual = 5.25315e-11, No Iterations 8
Source for ThermalNO updated
Time = 0.0173

DILUPBiCG:  Solving for NO, Initial residual = 4.76592e-05, Final residual = 5.12786e-11, No Iterations 8
Source for ThermalNO updated
Time = 0.0174

DILUPBiCG:  Solving for NO, Initial residual = 4.75331e-05, Final residual = 5.02549e-11, No Iterations 8
Source for ThermalNO updated
Time = 0.0175

DILUPBiCG:  Solving for NO, Initial residual = 4.74078e-05, Final residual = 4.93724e-11, No Iterations 8
Source for ThermalNO updated
Time = 0.0176

DILUPBiCG:  Solving for NO, Initial residual = 4.72831e-05, Final residual = 9.29248e-10, No Iterations 6
Source for ThermalNO updated
Time = 0.0177

DILUPBiCG:  Solving for NO, Initial residual = 4.71591e-05, Final residual = 7.11164e-10, No Iterations 6
Source for ThermalNO updated
Time = 0.0178

DILUPBiCG:  Solving for NO, Initial residual = 4.70357e-05, Final residual = 6.47073e-10, No Iterations 6
Source for ThermalNO updated
Time = 0.0179

DILUPBiCG:  Solving for NO, Initial residual = 4.69129e-05, Final residual = 7.15909e-10, No Iterations 6
Source for ThermalNO updated
Time = 0.018

DILUPBiCG:  Solving for NO, Initial residual = 4.67905e-05, Final residual = 9.12914e-10, No Iterations 6
Source for ThermalNO updated
Time = 0.0181

DILUPBiCG:  Solving for NO, Initial residual = 4.66685e-05, Final residual = 3.74532e-10, No Iterations 7
Source for ThermalNO updated
Time = 0.0182

DILUPBiCG:  Solving for NO, Initial residual = 4.6547e-05, Final residual = 3.48304e-10, No Iterations 7
Source for ThermalNO updated
Time = 0.0183

DILUPBiCG:  Solving for NO, Initial residual = 4.64258e-05, Final residual = 3.26737e-10, No Iterations 7
Source for ThermalNO updated
Time = 0.0184

DILUPBiCG:  Solving for NO, Initial residual = 4.6305e-05, Final residual = 3.08549e-10, No Iterations 7
Source for ThermalNO updated
Time = 0.0185

DILUPBiCG:  Solving for NO, Initial residual = 4.61845e-05, Final residual = 2.92894e-10, No Iterations 7
Source for ThermalNO updated
Time = 0.0186

DILUPBiCG:  Solving for NO, Initial residual = 4.60643e-05, Final residual = 2.79237e-10, No Iterations 7
Source for ThermalNO updated
Time = 0.0187

DILUPBiCG:  Solving for NO, Initial residual = 4.59443e-05, Final residual = 2.67158e-10, No Iterations 7
Source for ThermalNO updated
Time = 0.0188

DILUPBiCG:  Solving for NO, Initial residual = 4.58246e-05, Final residual = 2.5638e-10, No Iterations 7
Source for ThermalNO updated
Time = 0.0189

DILUPBiCG:  Solving for NO, Initial residual = 4.57052e-05, Final residual = 2.46668e-10, No Iterations 7
Source for ThermalNO updated
Time = 0.019

DILUPBiCG:  Solving for NO, Initial residual = 4.55859e-05, Final residual = 2.37869e-10, No Iterations 7
Source for ThermalNO updated
Time = 0.0191

DILUPBiCG:  Solving for NO, Initial residual = 4.54668e-05, Final residual = 2.29865e-10, No Iterations 7
Source for ThermalNO updated
Time = 0.0192

DILUPBiCG:  Solving for NO, Initial residual = 4.53479e-05, Final residual = 2.22554e-10, No Iterations 7
Source for ThermalNO updated
Time = 0.0193

DILUPBiCG:  Solving for NO, Initial residual = 4.52291e-05, Final residual = 2.15843e-10, No Iterations 7
Source for ThermalNO updated
Time = 0.0194

DILUPBiCG:  Solving for NO, Initial residual = 4.51104e-05, Final residual = 2.09673e-10, No Iterations 7
Source for ThermalNO updated
Time = 0.0195

DILUPBiCG:  Solving for NO, Initial residual = 4.49918e-05, Final residual = 2.03986e-10, No Iterations 7
Source for ThermalNO updated
Time = 0.0196

DILUPBiCG:  Solving for NO, Initial residual = 4.48733e-05, Final residual = 1.98731e-10, No Iterations 7
Source for ThermalNO updated
Time = 0.0197

DILUPBiCG:  Solving for NO, Initial residual = 4.47549e-05, Final residual = 1.93866e-10, No Iterations 7
Source for ThermalNO updated
Time = 0.0198

DILUPBiCG:  Solving for NO, Initial residual = 4.46365e-05, Final residual = 1.89353e-10, No Iterations 7
Source for ThermalNO updated
Time = 0.0199

DILUPBiCG:  Solving for NO, Initial residual = 4.45182e-05, Final residual = 1.85173e-10, No Iterations 7
Source for ThermalNO updated
Time = 0.02

DILUPBiCG:  Solving for NO, Initial residual = 4.43999e-05, Final residual = 1.81295e-10, No Iterations 7
Source for ThermalNO updated
Time = 0.0201

DILUPBiCG:  Solving for NO, Initial residual = 4.42816e-05, Final residual = 1.77702e-10, No Iterations 7
Source for ThermalNO updated
Time = 0.0202

DILUPBiCG:  Solving for NO, Initial residual = 4.41633e-05, Final residual = 1.74379e-10, No Iterations 7
Source for ThermalNO updated
Time = 0.0203

DILUPBiCG:  Solving for NO, Initial residual = 4.4045e-05, Final residual = 1.7131e-10, No Iterations 7
Source for ThermalNO updated
Time = 0.0204

DILUPBiCG:  Solving for NO, Initial residual = 4.39267e-05, Final residual = 1.6848e-10, No Iterations 7
Source for ThermalNO updated
Time = 0.0205

DILUPBiCG:  Solving for NO, Initial residual = 4.38084e-05, Final residual = 1.65878e-10, No Iterations 7
Source for ThermalNO updated
Time = 0.0206

DILUPBiCG:  Solving for NO, Initial residual = 4.36901e-05, Final residual = 1.63496e-10, No Iterations 7
Source for ThermalNO updated
Time = 0.0207

DILUPBiCG:  Solving for NO, Initial residual = 4.35717e-05, Final residual = 1.61327e-10, No Iterations 7
Source for ThermalNO updated
Time = 0.0208

DILUPBiCG:  Solving for NO, Initial residual = 4.34533e-05, Final residual = 1.59365e-10, No Iterations 7
Source for ThermalNO updated
Time = 0.0209

DILUPBiCG:  Solving for NO, Initial residual = 4.33348e-05, Final residual = 1.57609e-10, No Iterations 7
Source for ThermalNO updated
Time = 0.021

DILUPBiCG:  Solving for NO, Initial residual = 4.32163e-05, Final residual = 1.56045e-10, No Iterations 7
Source for ThermalNO updated
Time = 0.0211

DILUPBiCG:  Solving for NO, Initial residual = 4.30978e-05, Final residual = 1.5467e-10, No Iterations 7
Source for ThermalNO updated
Time = 0.0212

DILUPBiCG:  Solving for NO, Initial residual = 4.29791e-05, Final residual = 1.5348e-10, No Iterations 7
Source for ThermalNO updated
Time = 0.0213

DILUPBiCG:  Solving for NO, Initial residual = 4.28604e-05, Final residual = 1.52475e-10, No Iterations 7
Source for ThermalNO updated
Time = 0.0214

DILUPBiCG:  Solving for NO, Initial residual = 4.27417e-05, Final residual = 1.5165e-10, No Iterations 7
Source for ThermalNO updated
Time = 0.0215

DILUPBiCG:  Solving for NO, Initial residual = 4.26229e-05, Final residual = 1.51e-10, No Iterations 7
Source for ThermalNO updated
Time = 0.0216

DILUPBiCG:  Solving for NO, Initial residual = 4.2504e-05, Final residual = 1.50526e-10, No Iterations 7
Source for ThermalNO updated
Time = 0.0217

DILUPBiCG:  Solving for NO, Initial residual = 4.2385e-05, Final residual = 1.50228e-10, No Iterations 7
Source for ThermalNO updated
Time = 0.0218

DILUPBiCG:  Solving for NO, Initial residual = 4.2266e-05, Final residual = 1.50107e-10, No Iterations 7
Source for ThermalNO updated
Time = 0.0219

DILUPBiCG:  Solving for NO, Initial residual = 4.2147e-05, Final residual = 1.50163e-10, No Iterations 7
Source for ThermalNO updated
Time = 0.022

DILUPBiCG:  Solving for NO, Initial residual = 4.2028e-05, Final residual = 1.50398e-10, No Iterations 7
Source for ThermalNO updated
Time = 0.0221

DILUPBiCG:  Solving for NO, Initial residual = 4.19088e-05, Final residual = 1.50811e-10, No Iterations 7
Source for ThermalNO updated
Time = 0.0222

DILUPBiCG:  Solving for NO, Initial residual = 4.17896e-05, Final residual = 1.51404e-10, No Iterations 7
Source for ThermalNO updated
Time = 0.0223

DILUPBiCG:  Solving for NO, Initial residual = 4.16704e-05, Final residual = 1.52179e-10, No Iterations 7
Source for ThermalNO updated
Time = 0.0224

DILUPBiCG:  Solving for NO, Initial residual = 4.15511e-05, Final residual = 1.53139e-10, No Iterations 7
Source for ThermalNO updated
Time = 0.0225

DILUPBiCG:  Solving for NO, Initial residual = 4.14317e-05, Final residual = 1.54289e-10, No Iterations 7
Source for ThermalNO updated
Time = 0.0226

DILUPBiCG:  Solving for NO, Initial residual = 4.13123e-05, Final residual = 1.55636e-10, No Iterations 7
Source for ThermalNO updated
Time = 0.0227

DILUPBiCG:  Solving for NO, Initial residual = 4.11928e-05, Final residual = 1.57186e-10, No Iterations 7
Source for ThermalNO updated
Time = 0.0228

DILUPBiCG:  Solving for NO, Initial residual = 4.10733e-05, Final residual = 1.58946e-10, No Iterations 7
Source for ThermalNO updated
Time = 0.0229

DILUPBiCG:  Solving for NO, Initial residual = 4.09537e-05, Final residual = 1.60921e-10, No Iterations 7
Source for ThermalNO updated
Time = 0.023

DILUPBiCG:  Solving for NO, Initial residual = 4.08341e-05, Final residual = 1.63119e-10, No Iterations 7
Source for ThermalNO updated
Time = 0.0231

DILUPBiCG:  Solving for NO, Initial residual = 4.07145e-05, Final residual = 1.65556e-10, No Iterations 7
Source for ThermalNO updated
Time = 0.0232

DILUPBiCG:  Solving for NO, Initial residual = 4.05948e-05, Final residual = 1.68238e-10, No Iterations 7
Source for ThermalNO updated
Time = 0.0233

DILUPBiCG:  Solving for NO, Initial residual = 4.04752e-05, Final residual = 1.71181e-10, No Iterations 7
Source for ThermalNO updated
Time = 0.0234

DILUPBiCG:  Solving for NO, Initial residual = 4.03555e-05, Final residual = 1.74401e-10, No Iterations 7
Source for ThermalNO updated
Time = 0.0235

DILUPBiCG:  Solving for NO, Initial residual = 4.02359e-05, Final residual = 1.77917e-10, No Iterations 7
Source for ThermalNO updated
Time = 0.0236

DILUPBiCG:  Solving for NO, Initial residual = 4.01162e-05, Final residual = 1.81749e-10, No Iterations 7
Source for ThermalNO updated
Time = 0.0237

DILUPBiCG:  Solving for NO, Initial residual = 3.99966e-05, Final residual = 1.85926e-10, No Iterations 7
Source for ThermalNO updated
Time = 0.0238

DILUPBiCG:  Solving for NO, Initial residual = 3.98769e-05, Final residual = 1.90471e-10, No Iterations 7
Source for ThermalNO updated
Time = 0.0239

DILUPBiCG:  Solving for NO, Initial residual = 3.97573e-05, Final residual = 1.95421e-10, No Iterations 7
Source for ThermalNO updated
Time = 0.024

DILUPBiCG:  Solving for NO, Initial residual = 3.96378e-05, Final residual = 2.0082e-10, No Iterations 7
Source for ThermalNO updated
Time = 0.0241

DILUPBiCG:  Solving for NO, Initial residual = 3.95183e-05, Final residual = 2.06703e-10, No Iterations 7
Source for ThermalNO updated
Time = 0.0242

DILUPBiCG:  Solving for NO, Initial residual = 3.93988e-05, Final residual = 2.13113e-10, No Iterations 7
Source for ThermalNO updated
Time = 0.0243

DILUPBiCG:  Solving for NO, Initial residual = 3.92794e-05, Final residual = 2.20111e-10, No Iterations 7
Source for ThermalNO updated
Time = 0.0244

DILUPBiCG:  Solving for NO, Initial residual = 3.916e-05, Final residual = 2.27771e-10, No Iterations 7
Source for ThermalNO updated
Time = 0.0245

DILUPBiCG:  Solving for NO, Initial residual = 3.90407e-05, Final residual = 8.77697e-10, No Iterations 6
Source for ThermalNO updated
Time = 0.0246

DILUPBiCG:  Solving for NO, Initial residual = 3.89215e-05, Final residual = 7.4221e-10, No Iterations 6
Source for ThermalNO updated
Time = 0.0247

DILUPBiCG:  Solving for NO, Initial residual = 3.88023e-05, Final residual = 6.3338e-10, No Iterations 6
Source for ThermalNO updated
Time = 0.0248

DILUPBiCG:  Solving for NO, Initial residual = 3.86833e-05, Final residual = 5.46371e-10, No Iterations 6
Source for ThermalNO updated
Time = 0.0249

DILUPBiCG:  Solving for NO, Initial residual = 3.85643e-05, Final residual = 9.96449e-10, No Iterations 5
Source for ThermalNO updated
Time = 0.025

DILUPBiCG:  Solving for NO, Initial residual = 3.84455e-05, Final residual = 9.39612e-10, No Iterations 5
Source for ThermalNO updated
Time = 0.0251

DILUPBiCG:  Solving for NO, Initial residual = 3.83267e-05, Final residual = 8.91744e-10, No Iterations 5
Source for ThermalNO updated
Time = 0.0252

DILUPBiCG:  Solving for NO, Initial residual = 3.82081e-05, Final residual = 8.54838e-10, No Iterations 5
Source for ThermalNO updated
Time = 0.0253

DILUPBiCG:  Solving for NO, Initial residual = 3.80896e-05, Final residual = 8.28175e-10, No Iterations 5
Source for ThermalNO updated
Time = 0.0254

DILUPBiCG:  Solving for NO, Initial residual = 3.79713e-05, Final residual = 8.11362e-10, No Iterations 5
Source for ThermalNO updated
Time = 0.0255

DILUPBiCG:  Solving for NO, Initial residual = 3.78531e-05, Final residual = 8.04135e-10, No Iterations 5
Source for ThermalNO updated
Time = 0.0256

DILUPBiCG:  Solving for NO, Initial residual = 3.77351e-05, Final residual = 8.07364e-10, No Iterations 5
Source for ThermalNO updated
Time = 0.0257

DILUPBiCG:  Solving for NO, Initial residual = 3.76172e-05, Final residual = 8.20907e-10, No Iterations 5
Source for ThermalNO updated
Time = 0.0258

DILUPBiCG:  Solving for NO, Initial residual = 3.74995e-05, Final residual = 8.45185e-10, No Iterations 5
Source for ThermalNO updated
Time = 0.0259

DILUPBiCG:  Solving for NO, Initial residual = 3.7382e-05, Final residual = 8.81685e-10, No Iterations 5
Source for ThermalNO updated
Time = 0.026

DILUPBiCG:  Solving for NO, Initial residual = 3.72647e-05, Final residual = 9.29732e-10, No Iterations 5
Source for ThermalNO updated
Time = 0.0261

DILUPBiCG:  Solving for NO, Initial residual = 3.71475e-05, Final residual = 9.89653e-10, No Iterations 5
Source for ThermalNO updated
Time = 0.0262

DILUPBiCG:  Solving for NO, Initial residual = 3.70305e-05, Final residual = 6.8043e-10, No Iterations 6
Source for ThermalNO updated
Time = 0.0263

DILUPBiCG:  Solving for NO, Initial residual = 3.69137e-05, Final residual = 7.04342e-10, No Iterations 6
Source for ThermalNO updated
Time = 0.0264

DILUPBiCG:  Solving for NO, Initial residual = 3.67971e-05, Final residual = 7.26455e-10, No Iterations 6
Source for ThermalNO updated
Time = 0.0265

DILUPBiCG:  Solving for NO, Initial residual = 3.66807e-05, Final residual = 7.47808e-10, No Iterations 6
Source for ThermalNO updated
Time = 0.0266

DILUPBiCG:  Solving for NO, Initial residual = 3.65646e-05, Final residual = 7.67797e-10, No Iterations 6
Source for ThermalNO updated
Time = 0.0267

DILUPBiCG:  Solving for NO, Initial residual = 3.64486e-05, Final residual = 7.83059e-10, No Iterations 6
Source for ThermalNO updated
Time = 0.0268

DILUPBiCG:  Solving for NO, Initial residual = 3.63329e-05, Final residual = 7.88583e-10, No Iterations 6
Source for ThermalNO updated
Time = 0.0269

DILUPBiCG:  Solving for NO, Initial residual = 3.62174e-05, Final residual = 7.79686e-10, No Iterations 6
Source for ThermalNO updated
Time = 0.027

DILUPBiCG:  Solving for NO, Initial residual = 3.61022e-05, Final residual = 8.07981e-10, No Iterations 6
Source for ThermalNO updated
Time = 0.0271

DILUPBiCG:  Solving for NO, Initial residual = 3.59872e-05, Final residual = 3.79012e-10, No Iterations 7
Source for ThermalNO updated
Time = 0.0272

DILUPBiCG:  Solving for NO, Initial residual = 3.58724e-05, Final residual = 4.29415e-10, No Iterations 7
Source for ThermalNO updated
Time = 0.0273

DILUPBiCG:  Solving for NO, Initial residual = 3.5758e-05, Final residual = 4.8315e-10, No Iterations 7
Source for ThermalNO updated
Time = 0.0274

DILUPBiCG:  Solving for NO, Initial residual = 3.56438e-05, Final residual = 5.42143e-10, No Iterations 7
Source for ThermalNO updated
Time = 0.0275

DILUPBiCG:  Solving for NO, Initial residual = 3.55298e-05, Final residual = 6.08469e-10, No Iterations 7
Source for ThermalNO updated
Time = 0.0276

DILUPBiCG:  Solving for NO, Initial residual = 3.54162e-05, Final residual = 6.84667e-10, No Iterations 7
Source for ThermalNO updated
Time = 0.0277

DILUPBiCG:  Solving for NO, Initial residual = 3.53028e-05, Final residual = 7.74074e-10, No Iterations 7
Source for ThermalNO updated
Time = 0.0278

DILUPBiCG:  Solving for NO, Initial residual = 3.51897e-05, Final residual = 8.8134e-10, No Iterations 7
Source for ThermalNO updated
Time = 0.0279

DILUPBiCG:  Solving for NO, Initial residual = 3.50769e-05, Final residual = 3.74043e-11, No Iterations 8
Source for ThermalNO updated
Time = 0.028

DILUPBiCG:  Solving for NO, Initial residual = 3.49644e-05, Final residual = 3.59274e-11, No Iterations 8
Source for ThermalNO updated
Time = 0.0281

DILUPBiCG:  Solving for NO, Initial residual = 3.48522e-05, Final residual = 3.46649e-11, No Iterations 8
Source for ThermalNO updated
Time = 0.0282

DILUPBiCG:  Solving for NO, Initial residual = 3.47403e-05, Final residual = 3.35713e-11, No Iterations 8
Source for ThermalNO updated
Time = 0.0283

DILUPBiCG:  Solving for NO, Initial residual = 3.46287e-05, Final residual = 3.26162e-11, No Iterations 8
Source for ThermalNO updated
Time = 0.0284

DILUPBiCG:  Solving for NO, Initial residual = 3.45174e-05, Final residual = 3.17763e-11, No Iterations 8
Source for ThermalNO updated
Time = 0.0285

DILUPBiCG:  Solving for NO, Initial residual = 3.44064e-05, Final residual = 3.1035e-11, No Iterations 8
Source for ThermalNO updated
Time = 0.0286

DILUPBiCG:  Solving for NO, Initial residual = 3.42958e-05, Final residual = 3.03787e-11, No Iterations 8
Source for ThermalNO updated
Time = 0.0287

DILUPBiCG:  Solving for NO, Initial residual = 3.41855e-05, Final residual = 2.97957e-11, No Iterations 8
Source for ThermalNO updated
Time = 0.0288

DILUPBiCG:  Solving for NO, Initial residual = 3.40755e-05, Final residual = 2.92777e-11, No Iterations 8
Source for ThermalNO updated
Time = 0.0289

DILUPBiCG:  Solving for NO, Initial residual = 3.39659e-05, Final residual = 2.88169e-11, No Iterations 8
Source for ThermalNO updated
Time = 0.029

DILUPBiCG:  Solving for NO, Initial residual = 3.38566e-05, Final residual = 2.84066e-11, No Iterations 8
Source for ThermalNO updated
Time = 0.0291

DILUPBiCG:  Solving for NO, Initial residual = 3.37476e-05, Final residual = 2.80419e-11, No Iterations 8
Source for ThermalNO updated
Time = 0.0292

DILUPBiCG:  Solving for NO, Initial residual = 3.3639e-05, Final residual = 2.77184e-11, No Iterations 8
Source for ThermalNO updated
Time = 0.0293

DILUPBiCG:  Solving for NO, Initial residual = 3.35308e-05, Final residual = 2.74326e-11, No Iterations 8
Source for ThermalNO updated
Time = 0.0294

DILUPBiCG:  Solving for NO, Initial residual = 3.34229e-05, Final residual = 2.71816e-11, No Iterations 8
Source for ThermalNO updated
Time = 0.0295

DILUPBiCG:  Solving for NO, Initial residual = 3.33154e-05, Final residual = 2.69628e-11, No Iterations 8
Source for ThermalNO updated
Time = 0.0296

DILUPBiCG:  Solving for NO, Initial residual = 3.32082e-05, Final residual = 2.67744e-11, No Iterations 8
Source for ThermalNO updated
Time = 0.0297

DILUPBiCG:  Solving for NO, Initial residual = 3.31014e-05, Final residual = 2.66146e-11, No Iterations 8
Source for ThermalNO updated
Time = 0.0298

DILUPBiCG:  Solving for NO, Initial residual = 3.2995e-05, Final residual = 2.64818e-11, No Iterations 8
Source for ThermalNO updated
Time = 0.0299

DILUPBiCG:  Solving for NO, Initial residual = 3.28889e-05, Final residual = 2.63748e-11, No Iterations 8
Source for ThermalNO updated
Time = 0.03

DILUPBiCG:  Solving for NO, Initial residual = 3.27832e-05, Final residual = 9.64292e-10, No Iterations 7
Source for ThermalNO updated
Time = 0.0301

DILUPBiCG:  Solving for NO, Initial residual = 3.26778e-05, Final residual = 9.06472e-10, No Iterations 7
Source for ThermalNO updated
Time = 0.0302

DILUPBiCG:  Solving for NO, Initial residual = 3.25728e-05, Final residual = 8.56388e-10, No Iterations 7
Source for ThermalNO updated
Time = 0.0303

DILUPBiCG:  Solving for NO, Initial residual = 3.24682e-05, Final residual = 8.12598e-10, No Iterations 7
Source for ThermalNO updated
Time = 0.0304

DILUPBiCG:  Solving for NO, Initial residual = 3.2364e-05, Final residual = 7.7397e-10, No Iterations 7
Source for ThermalNO updated
Time = 0.0305

DILUPBiCG:  Solving for NO, Initial residual = 3.22601e-05, Final residual = 7.39624e-10, No Iterations 7
Source for ThermalNO updated
Time = 0.0306

DILUPBiCG:  Solving for NO, Initial residual = 3.21566e-05, Final residual = 7.08866e-10, No Iterations 7
Source for ThermalNO updated
Time = 0.0307

DILUPBiCG:  Solving for NO, Initial residual = 3.20535e-05, Final residual = 6.81147e-10, No Iterations 7
Source for ThermalNO updated
Time = 0.0308

DILUPBiCG:  Solving for NO, Initial residual = 3.19508e-05, Final residual = 6.56019e-10, No Iterations 7
Source for ThermalNO updated
Time = 0.0309

DILUPBiCG:  Solving for NO, Initial residual = 3.18485e-05, Final residual = 6.33113e-10, No Iterations 7
Source for ThermalNO updated
Time = 0.031

DILUPBiCG:  Solving for NO, Initial residual = 3.17465e-05, Final residual = 6.12134e-10, No Iterations 7
Source for ThermalNO updated
Time = 0.0311

DILUPBiCG:  Solving for NO, Initial residual = 3.1645e-05, Final residual = 5.92827e-10, No Iterations 7
Source for ThermalNO updated
Time = 0.0312

DILUPBiCG:  Solving for NO, Initial residual = 3.15438e-05, Final residual = 5.74986e-10, No Iterations 7
Source for ThermalNO updated
Time = 0.0313

DILUPBiCG:  Solving for NO, Initial residual = 3.1443e-05, Final residual = 5.58435e-10, No Iterations 7
Source for ThermalNO updated
Time = 0.0314

DILUPBiCG:  Solving for NO, Initial residual = 3.13427e-05, Final residual = 5.4302e-10, No Iterations 7
Source for ThermalNO updated
Time = 0.0315

DILUPBiCG:  Solving for NO, Initial residual = 3.12427e-05, Final residual = 5.28616e-10, No Iterations 7
Source for ThermalNO updated
Time = 0.0316

DILUPBiCG:  Solving for NO, Initial residual = 3.11431e-05, Final residual = 5.15111e-10, No Iterations 7
Source for ThermalNO updated
Time = 0.0317

DILUPBiCG:  Solving for NO, Initial residual = 3.10439e-05, Final residual = 5.02408e-10, No Iterations 7
Source for ThermalNO updated
Time = 0.0318

DILUPBiCG:  Solving for NO, Initial residual = 3.09451e-05, Final residual = 4.90426e-10, No Iterations 7
Source for ThermalNO updated
Time = 0.0319

DILUPBiCG:  Solving for NO, Initial residual = 3.08466e-05, Final residual = 4.79097e-10, No Iterations 7
Source for ThermalNO updated
Time = 0.032

DILUPBiCG:  Solving for NO, Initial residual = 3.07486e-05, Final residual = 4.68356e-10, No Iterations 7
Source for ThermalNO updated
Time = 0.0321

DILUPBiCG:  Solving for NO, Initial residual = 3.0651e-05, Final residual = 4.58145e-10, No Iterations 7
Source for ThermalNO updated
Time = 0.0322

DILUPBiCG:  Solving for NO, Initial residual = 3.05538e-05, Final residual = 4.48418e-10, No Iterations 7
Source for ThermalNO updated
Time = 0.0323

DILUPBiCG:  Solving for NO, Initial residual = 3.04569e-05, Final residual = 4.3913e-10, No Iterations 7
Source for ThermalNO updated
Time = 0.0324

DILUPBiCG:  Solving for NO, Initial residual = 3.03605e-05, Final residual = 4.30247e-10, No Iterations 7
Source for ThermalNO updated
Time = 0.0325

DILUPBiCG:  Solving for NO, Initial residual = 3.02644e-05, Final residual = 4.21732e-10, No Iterations 7
Source for ThermalNO updated
Time = 0.0326

DILUPBiCG:  Solving for NO, Initial residual = 3.01688e-05, Final residual = 4.13556e-10, No Iterations 7
Source for ThermalNO updated
Time = 0.0327

DILUPBiCG:  Solving for NO, Initial residual = 3.00735e-05, Final residual = 4.05691e-10, No Iterations 7
Source for ThermalNO updated
Time = 0.0328

DILUPBiCG:  Solving for NO, Initial residual = 2.99787e-05, Final residual = 3.98114e-10, No Iterations 7
Source for ThermalNO updated
Time = 0.0329

DILUPBiCG:  Solving for NO, Initial residual = 2.98842e-05, Final residual = 3.90805e-10, No Iterations 7
Source for ThermalNO updated
Time = 0.033

DILUPBiCG:  Solving for NO, Initial residual = 2.97902e-05, Final residual = 3.83746e-10, No Iterations 7
Source for ThermalNO updated
Time = 0.0331

DILUPBiCG:  Solving for NO, Initial residual = 2.96965e-05, Final residual = 3.76917e-10, No Iterations 7
Source for ThermalNO updated
Time = 0.0332

DILUPBiCG:  Solving for NO, Initial residual = 2.96033e-05, Final residual = 3.70301e-10, No Iterations 7
Source for ThermalNO updated
Time = 0.0333

DILUPBiCG:  Solving for NO, Initial residual = 2.95104e-05, Final residual = 3.63884e-10, No Iterations 7
Source for ThermalNO updated
Time = 0.0334

DILUPBiCG:  Solving for NO, Initial residual = 2.9418e-05, Final residual = 3.57653e-10, No Iterations 7
Source for ThermalNO updated
Time = 0.0335

DILUPBiCG:  Solving for NO, Initial residual = 2.93259e-05, Final residual = 3.51601e-10, No Iterations 7
Source for ThermalNO updated
Time = 0.0336

DILUPBiCG:  Solving for NO, Initial residual = 2.92342e-05, Final residual = 3.45717e-10, No Iterations 7
Source for ThermalNO updated
Time = 0.0337

DILUPBiCG:  Solving for NO, Initial residual = 2.9143e-05, Final residual = 3.39988e-10, No Iterations 7
Source for ThermalNO updated
Time = 0.0338

DILUPBiCG:  Solving for NO, Initial residual = 2.90521e-05, Final residual = 3.34407e-10, No Iterations 7
Source for ThermalNO updated
Time = 0.0339

DILUPBiCG:  Solving for NO, Initial residual = 2.89616e-05, Final residual = 3.28964e-10, No Iterations 7
Source for ThermalNO updated
Time = 0.034

DILUPBiCG:  Solving for NO, Initial residual = 2.88715e-05, Final residual = 3.23655e-10, No Iterations 7
Source for ThermalNO updated
Time = 0.0341

DILUPBiCG:  Solving for NO, Initial residual = 2.87818e-05, Final residual = 3.18475e-10, No Iterations 7
Source for ThermalNO updated
Time = 0.0342

DILUPBiCG:  Solving for NO, Initial residual = 2.86924e-05, Final residual = 3.13418e-10, No Iterations 7
Source for ThermalNO updated
Time = 0.0343

DILUPBiCG:  Solving for NO, Initial residual = 2.86035e-05, Final residual = 3.08481e-10, No Iterations 7
Source for ThermalNO updated
Time = 0.0344

DILUPBiCG:  Solving for NO, Initial residual = 2.85149e-05, Final residual = 3.03657e-10, No Iterations 7
Source for ThermalNO updated
Time = 0.0345

DILUPBiCG:  Solving for NO, Initial residual = 2.84267e-05, Final residual = 2.98939e-10, No Iterations 7
Source for ThermalNO updated
Time = 0.0346

DILUPBiCG:  Solving for NO, Initial residual = 2.83389e-05, Final residual = 2.94326e-10, No Iterations 7
Source for ThermalNO updated
Time = 0.0347

DILUPBiCG:  Solving for NO, Initial residual = 2.82515e-05, Final residual = 2.89813e-10, No Iterations 7
Source for ThermalNO updated
Time = 0.0348

DILUPBiCG:  Solving for NO, Initial residual = 2.81645e-05, Final residual = 2.85397e-10, No Iterations 7
Source for ThermalNO updated
Time = 0.0349

DILUPBiCG:  Solving for NO, Initial residual = 2.80779e-05, Final residual = 2.81075e-10, No Iterations 7
Source for ThermalNO updated
Time = 0.035

DILUPBiCG:  Solving for NO, Initial residual = 2.79916e-05, Final residual = 2.76846e-10, No Iterations 7
Source for ThermalNO updated
Time = 0.0351

DILUPBiCG:  Solving for NO, Initial residual = 2.79057e-05, Final residual = 2.72705e-10, No Iterations 7
Source for ThermalNO updated
Time = 0.0352

DILUPBiCG:  Solving for NO, Initial residual = 2.78202e-05, Final residual = 2.68648e-10, No Iterations 7
Source for ThermalNO updated
Time = 0.0353

DILUPBiCG:  Solving for NO, Initial residual = 2.7735e-05, Final residual = 2.64673e-10, No Iterations 7
Source for ThermalNO updated
Time = 0.0354

DILUPBiCG:  Solving for NO, Initial residual = 2.76503e-05, Final residual = 2.60778e-10, No Iterations 7
Source for ThermalNO updated
Time = 0.0355

DILUPBiCG:  Solving for NO, Initial residual = 2.75659e-05, Final residual = 2.56962e-10, No Iterations 7
Source for ThermalNO updated
Time = 0.0356

DILUPBiCG:  Solving for NO, Initial residual = 2.74818e-05, Final residual = 2.53221e-10, No Iterations 7
Source for ThermalNO updated
Time = 0.0357

DILUPBiCG:  Solving for NO, Initial residual = 2.73982e-05, Final residual = 2.49556e-10, No Iterations 7
Source for ThermalNO updated
Time = 0.0358

DILUPBiCG:  Solving for NO, Initial residual = 2.73149e-05, Final residual = 2.45965e-10, No Iterations 7
Source for ThermalNO updated
Time = 0.0359

DILUPBiCG:  Solving for NO, Initial residual = 2.72319e-05, Final residual = 2.42446e-10, No Iterations 7
Source for ThermalNO updated
Time = 0.036

DILUPBiCG:  Solving for NO, Initial residual = 2.71494e-05, Final residual = 2.38996e-10, No Iterations 7
Source for ThermalNO updated
Time = 0.0361

DILUPBiCG:  Solving for NO, Initial residual = 2.70672e-05, Final residual = 2.35612e-10, No Iterations 7
Source for ThermalNO updated
Time = 0.0362

DILUPBiCG:  Solving for NO, Initial residual = 2.69853e-05, Final residual = 2.32295e-10, No Iterations 7
Source for ThermalNO updated
Time = 0.0363

DILUPBiCG:  Solving for NO, Initial residual = 2.69038e-05, Final residual = 2.29042e-10, No Iterations 7
Source for ThermalNO updated
Time = 0.0364

DILUPBiCG:  Solving for NO, Initial residual = 2.68227e-05, Final residual = 2.25852e-10, No Iterations 7
Source for ThermalNO updated
Time = 0.0365

DILUPBiCG:  Solving for NO, Initial residual = 2.67419e-05, Final residual = 2.22725e-10, No Iterations 7
Source for ThermalNO updated
Time = 0.0366

DILUPBiCG:  Solving for NO, Initial residual = 2.66615e-05, Final residual = 2.19659e-10, No Iterations 7
Source for ThermalNO updated
Time = 0.0367

DILUPBiCG:  Solving for NO, Initial residual = 2.65814e-05, Final residual = 2.16653e-10, No Iterations 7
Source for ThermalNO updated
Time = 0.0368

DILUPBiCG:  Solving for NO, Initial residual = 2.65017e-05, Final residual = 2.13706e-10, No Iterations 7
Source for ThermalNO updated
Time = 0.0369

DILUPBiCG:  Solving for NO, Initial residual = 2.64223e-05, Final residual = 2.10816e-10, No Iterations 7
Source for ThermalNO updated
Time = 0.037

DILUPBiCG:  Solving for NO, Initial residual = 2.63433e-05, Final residual = 2.07982e-10, No Iterations 7
Source for ThermalNO updated
Time = 0.0371

DILUPBiCG:  Solving for NO, Initial residual = 2.62646e-05, Final residual = 2.05203e-10, No Iterations 7
Source for ThermalNO updated
Time = 0.0372

DILUPBiCG:  Solving for NO, Initial residual = 2.61862e-05, Final residual = 2.02477e-10, No Iterations 7
Source for ThermalNO updated
Time = 0.0373

DILUPBiCG:  Solving for NO, Initial residual = 2.61082e-05, Final residual = 9.99265e-10, No Iterations 6
Source for ThermalNO updated
Time = 0.0374

DILUPBiCG:  Solving for NO, Initial residual = 2.60305e-05, Final residual = 9.90026e-10, No Iterations 6
Source for ThermalNO updated
Time = 0.0375

DILUPBiCG:  Solving for NO, Initial residual = 2.59532e-05, Final residual = 9.81408e-10, No Iterations 6
Source for ThermalNO updated
Time = 0.0376

DILUPBiCG:  Solving for NO, Initial residual = 2.58762e-05, Final residual = 9.73495e-10, No Iterations 6
Source for ThermalNO updated
Time = 0.0377

DILUPBiCG:  Solving for NO, Initial residual = 2.57995e-05, Final residual = 9.66024e-10, No Iterations 6
Source for ThermalNO updated
Time = 0.0378

DILUPBiCG:  Solving for NO, Initial residual = 2.57231e-05, Final residual = 9.58878e-10, No Iterations 6
Source for ThermalNO updated
Time = 0.0379

DILUPBiCG:  Solving for NO, Initial residual = 2.56471e-05, Final residual = 9.5201e-10, No Iterations 6
Source for ThermalNO updated
Time = 0.038

DILUPBiCG:  Solving for NO, Initial residual = 2.55714e-05, Final residual = 9.45399e-10, No Iterations 6
Source for ThermalNO updated
Time = 0.0381

DILUPBiCG:  Solving for NO, Initial residual = 2.54961e-05, Final residual = 9.39005e-10, No Iterations 6
Source for ThermalNO updated
Time = 0.0382

DILUPBiCG:  Solving for NO, Initial residual = 2.5421e-05, Final residual = 9.32806e-10, No Iterations 6
Source for ThermalNO updated
Time = 0.0383

DILUPBiCG:  Solving for NO, Initial residual = 2.53463e-05, Final residual = 9.26793e-10, No Iterations 6
Source for ThermalNO updated
Time = 0.0384

DILUPBiCG:  Solving for NO, Initial residual = 2.52718e-05, Final residual = 9.2096e-10, No Iterations 6
Source for ThermalNO updated
Time = 0.0385

DILUPBiCG:  Solving for NO, Initial residual = 2.51977e-05, Final residual = 9.15281e-10, No Iterations 6
Source for ThermalNO updated
Time = 0.0386

DILUPBiCG:  Solving for NO, Initial residual = 2.51239e-05, Final residual = 9.09722e-10, No Iterations 6
Source for ThermalNO updated
Time = 0.0387

DILUPBiCG:  Solving for NO, Initial residual = 2.50505e-05, Final residual = 9.04271e-10, No Iterations 6
Source for ThermalNO updated
Time = 0.0388

DILUPBiCG:  Solving for NO, Initial residual = 2.49773e-05, Final residual = 8.98914e-10, No Iterations 6
Source for ThermalNO updated
Time = 0.0389

DILUPBiCG:  Solving for NO, Initial residual = 2.49044e-05, Final residual = 8.93639e-10, No Iterations 6
Source for ThermalNO updated
Time = 0.039

DILUPBiCG:  Solving for NO, Initial residual = 2.48318e-05, Final residual = 8.88431e-10, No Iterations 6
Source for ThermalNO updated
Time = 0.0391

DILUPBiCG:  Solving for NO, Initial residual = 2.47596e-05, Final residual = 8.8327e-10, No Iterations 6
Source for ThermalNO updated
Time = 0.0392

DILUPBiCG:  Solving for NO, Initial residual = 2.46876e-05, Final residual = 8.78141e-10, No Iterations 6
Source for ThermalNO updated
Time = 0.0393

DILUPBiCG:  Solving for NO, Initial residual = 2.46159e-05, Final residual = 8.73033e-10, No Iterations 6
Source for ThermalNO updated
Time = 0.0394

DILUPBiCG:  Solving for NO, Initial residual = 2.45446e-05, Final residual = 8.67937e-10, No Iterations 6
Source for ThermalNO updated
Time = 0.0395

DILUPBiCG:  Solving for NO, Initial residual = 2.44735e-05, Final residual = 8.6284e-10, No Iterations 6
Source for ThermalNO updated
Time = 0.0396

DILUPBiCG:  Solving for NO, Initial residual = 2.44027e-05, Final residual = 8.57727e-10, No Iterations 6
Source for ThermalNO updated
Time = 0.0397

DILUPBiCG:  Solving for NO, Initial residual = 2.43322e-05, Final residual = 8.52589e-10, No Iterations 6
Source for ThermalNO updated
Time = 0.0398

DILUPBiCG:  Solving for NO, Initial residual = 2.4262e-05, Final residual = 8.47418e-10, No Iterations 6
Source for ThermalNO updated
Time = 0.0399

DILUPBiCG:  Solving for NO, Initial residual = 2.41921e-05, Final residual = 8.42214e-10, No Iterations 6
Source for ThermalNO updated
Time = 0.04

DILUPBiCG:  Solving for NO, Initial residual = 2.41224e-05, Final residual = 8.36965e-10, No Iterations 6
Source for ThermalNO updated
Time = 0.0401

DILUPBiCG:  Solving for NO, Initial residual = 2.40531e-05, Final residual = 8.31662e-10, No Iterations 6
Source for ThermalNO updated
Time = 0.0402

DILUPBiCG:  Solving for NO, Initial residual = 2.3984e-05, Final residual = 8.26293e-10, No Iterations 6
Source for ThermalNO updated
Time = 0.0403

DILUPBiCG:  Solving for NO, Initial residual = 2.39152e-05, Final residual = 8.20851e-10, No Iterations 6
Source for ThermalNO updated
Time = 0.0404

DILUPBiCG:  Solving for NO, Initial residual = 2.38467e-05, Final residual = 8.15331e-10, No Iterations 6
Source for ThermalNO updated
Time = 0.0405

DILUPBiCG:  Solving for NO, Initial residual = 2.37784e-05, Final residual = 8.09727e-10, No Iterations 6
Source for ThermalNO updated
Time = 0.0406

DILUPBiCG:  Solving for NO, Initial residual = 2.37105e-05, Final residual = 8.0404e-10, No Iterations 6
Source for ThermalNO updated
Time = 0.0407

DILUPBiCG:  Solving for NO, Initial residual = 2.36428e-05, Final residual = 7.98264e-10, No Iterations 6
Source for ThermalNO updated
Time = 0.0408

DILUPBiCG:  Solving for NO, Initial residual = 2.35753e-05, Final residual = 7.92397e-10, No Iterations 6
Source for ThermalNO updated
Time = 0.0409

DILUPBiCG:  Solving for NO, Initial residual = 2.35081e-05, Final residual = 7.86428e-10, No Iterations 6
Source for ThermalNO updated
Time = 0.041

DILUPBiCG:  Solving for NO, Initial residual = 2.34412e-05, Final residual = 7.80355e-10, No Iterations 6
Source for ThermalNO updated
Time = 0.0411

DILUPBiCG:  Solving for NO, Initial residual = 2.33746e-05, Final residual = 7.74176e-10, No Iterations 6
Source for ThermalNO updated
Time = 0.0412

DILUPBiCG:  Solving for NO, Initial residual = 2.33082e-05, Final residual = 7.67895e-10, No Iterations 6
Source for ThermalNO updated
Time = 0.0413

DILUPBiCG:  Solving for NO, Initial residual = 2.32421e-05, Final residual = 7.6151e-10, No Iterations 6
Source for ThermalNO updated
Time = 0.0414

DILUPBiCG:  Solving for NO, Initial residual = 2.31762e-05, Final residual = 7.55025e-10, No Iterations 6
Source for ThermalNO updated
Time = 0.0415

DILUPBiCG:  Solving for NO, Initial residual = 2.31106e-05, Final residual = 7.48442e-10, No Iterations 6
Source for ThermalNO updated
Time = 0.0416

DILUPBiCG:  Solving for NO, Initial residual = 2.30453e-05, Final residual = 7.41759e-10, No Iterations 6
Source for ThermalNO updated
Time = 0.0417

DILUPBiCG:  Solving for NO, Initial residual = 2.29802e-05, Final residual = 7.34978e-10, No Iterations 6
Source for ThermalNO updated
Time = 0.0418

DILUPBiCG:  Solving for NO, Initial residual = 2.29153e-05, Final residual = 7.28103e-10, No Iterations 6
Source for ThermalNO updated
Time = 0.0419

DILUPBiCG:  Solving for NO, Initial residual = 2.28507e-05, Final residual = 7.21137e-10, No Iterations 6
Source for ThermalNO updated
Time = 0.042

DILUPBiCG:  Solving for NO, Initial residual = 2.27864e-05, Final residual = 7.14084e-10, No Iterations 6
Source for ThermalNO updated
Time = 0.0421

DILUPBiCG:  Solving for NO, Initial residual = 2.27222e-05, Final residual = 7.06948e-10, No Iterations 6
Source for ThermalNO updated
Time = 0.0422

DILUPBiCG:  Solving for NO, Initial residual = 2.26584e-05, Final residual = 6.99734e-10, No Iterations 6
Source for ThermalNO updated
Time = 0.0423

DILUPBiCG:  Solving for NO, Initial residual = 2.25948e-05, Final residual = 6.92449e-10, No Iterations 6
Source for ThermalNO updated
Time = 0.0424

DILUPBiCG:  Solving for NO, Initial residual = 2.25314e-05, Final residual = 6.85097e-10, No Iterations 6
Source for ThermalNO updated
Time = 0.0425

DILUPBiCG:  Solving for NO, Initial residual = 2.24682e-05, Final residual = 6.77681e-10, No Iterations 6
Source for ThermalNO updated
Time = 0.0426

DILUPBiCG:  Solving for NO, Initial residual = 2.24053e-05, Final residual = 6.70208e-10, No Iterations 6
Source for ThermalNO updated
Time = 0.0427

DILUPBiCG:  Solving for NO, Initial residual = 2.23427e-05, Final residual = 6.62683e-10, No Iterations 6
Source for ThermalNO updated
Time = 0.0428

DILUPBiCG:  Solving for NO, Initial residual = 2.22802e-05, Final residual = 6.55113e-10, No Iterations 6
Source for ThermalNO updated
Time = 0.0429

DILUPBiCG:  Solving for NO, Initial residual = 2.2218e-05, Final residual = 6.47503e-10, No Iterations 6
Source for ThermalNO updated
Time = 0.043

DILUPBiCG:  Solving for NO, Initial residual = 2.2156e-05, Final residual = 6.3986e-10, No Iterations 6
Source for ThermalNO updated
Time = 0.0431

DILUPBiCG:  Solving for NO, Initial residual = 2.20943e-05, Final residual = 6.3219e-10, No Iterations 6
Source for ThermalNO updated
Time = 0.0432

DILUPBiCG:  Solving for NO, Initial residual = 2.20328e-05, Final residual = 6.24498e-10, No Iterations 6
Source for ThermalNO updated
Time = 0.0433

DILUPBiCG:  Solving for NO, Initial residual = 2.19715e-05, Final residual = 6.16791e-10, No Iterations 6
Source for ThermalNO updated
Time = 0.0434

DILUPBiCG:  Solving for NO, Initial residual = 2.19105e-05, Final residual = 6.09074e-10, No Iterations 6
Source for ThermalNO updated
Time = 0.0435

DILUPBiCG:  Solving for NO, Initial residual = 2.18496e-05, Final residual = 6.01354e-10, No Iterations 6
Source for ThermalNO updated
Time = 0.0436

DILUPBiCG:  Solving for NO, Initial residual = 2.1789e-05, Final residual = 5.93636e-10, No Iterations 6
Source for ThermalNO updated
Time = 0.0437

DILUPBiCG:  Solving for NO, Initial residual = 2.17286e-05, Final residual = 5.85927e-10, No Iterations 6
Source for ThermalNO updated
Time = 0.0438

DILUPBiCG:  Solving for NO, Initial residual = 2.16685e-05, Final residual = 5.78235e-10, No Iterations 6
Source for ThermalNO updated
Time = 0.0439

DILUPBiCG:  Solving for NO, Initial residual = 2.16085e-05, Final residual = 5.70562e-10, No Iterations 6
Source for ThermalNO updated
Time = 0.044

DILUPBiCG:  Solving for NO, Initial residual = 2.15488e-05, Final residual = 5.62915e-10, No Iterations 6
Source for ThermalNO updated
Time = 0.0441

DILUPBiCG:  Solving for NO, Initial residual = 2.14893e-05, Final residual = 5.55298e-10, No Iterations 6
Source for ThermalNO updated
Time = 0.0442

DILUPBiCG:  Solving for NO, Initial residual = 2.143e-05, Final residual = 5.47716e-10, No Iterations 6
Source for ThermalNO updated
Time = 0.0443

DILUPBiCG:  Solving for NO, Initial residual = 2.13709e-05, Final residual = 5.40173e-10, No Iterations 6
Source for ThermalNO updated
Time = 0.0444

DILUPBiCG:  Solving for NO, Initial residual = 2.1312e-05, Final residual = 5.32673e-10, No Iterations 6
Source for ThermalNO updated
Time = 0.0445

DILUPBiCG:  Solving for NO, Initial residual = 2.12533e-05, Final residual = 5.25222e-10, No Iterations 6
Source for ThermalNO updated
Time = 0.0446

DILUPBiCG:  Solving for NO, Initial residual = 2.11949e-05, Final residual = 5.17823e-10, No Iterations 6
Source for ThermalNO updated
Time = 0.0447

DILUPBiCG:  Solving for NO, Initial residual = 2.11367e-05, Final residual = 5.1048e-10, No Iterations 6
Source for ThermalNO updated
Time = 0.0448

DILUPBiCG:  Solving for NO, Initial residual = 2.10786e-05, Final residual = 5.03198e-10, No Iterations 6
Source for ThermalNO updated
Time = 0.0449

DILUPBiCG:  Solving for NO, Initial residual = 2.10208e-05, Final residual = 4.95979e-10, No Iterations 6
Source for ThermalNO updated
Time = 0.045

DILUPBiCG:  Solving for NO, Initial residual = 2.09632e-05, Final residual = 4.88827e-10, No Iterations 6
Source for ThermalNO updated
Time = 0.0451

DILUPBiCG:  Solving for NO, Initial residual = 2.09058e-05, Final residual = 4.81746e-10, No Iterations 6
Source for ThermalNO updated
Time = 0.0452

DILUPBiCG:  Solving for NO, Initial residual = 2.08486e-05, Final residual = 4.74737e-10, No Iterations 6
Source for ThermalNO updated
Time = 0.0453

DILUPBiCG:  Solving for NO, Initial residual = 2.07915e-05, Final residual = 4.67803e-10, No Iterations 6
Source for ThermalNO updated
Time = 0.0454

DILUPBiCG:  Solving for NO, Initial residual = 2.07347e-05, Final residual = 4.60947e-10, No Iterations 6
Source for ThermalNO updated
Time = 0.0455

DILUPBiCG:  Solving for NO, Initial residual = 2.06781e-05, Final residual = 4.5417e-10, No Iterations 6
Source for ThermalNO updated
Time = 0.0456

DILUPBiCG:  Solving for NO, Initial residual = 2.06217e-05, Final residual = 4.47476e-10, No Iterations 6
Source for ThermalNO updated
Time = 0.0457

DILUPBiCG:  Solving for NO, Initial residual = 2.05655e-05, Final residual = 4.40865e-10, No Iterations 6
Source for ThermalNO updated
Time = 0.0458

DILUPBiCG:  Solving for NO, Initial residual = 2.05095e-05, Final residual = 4.34339e-10, No Iterations 6
Source for ThermalNO updated
Time = 0.0459

DILUPBiCG:  Solving for NO, Initial residual = 2.04537e-05, Final residual = 4.279e-10, No Iterations 6
Source for ThermalNO updated
Time = 0.046

DILUPBiCG:  Solving for NO, Initial residual = 2.03981e-05, Final residual = 4.21549e-10, No Iterations 6
Source for ThermalNO updated
Time = 0.0461

DILUPBiCG:  Solving for NO, Initial residual = 2.03426e-05, Final residual = 4.15286e-10, No Iterations 6
Source for ThermalNO updated
Time = 0.0462

DILUPBiCG:  Solving for NO, Initial residual = 2.02874e-05, Final residual = 4.09113e-10, No Iterations 6
Source for ThermalNO updated
Time = 0.0463

DILUPBiCG:  Solving for NO, Initial residual = 2.02324e-05, Final residual = 4.03029e-10, No Iterations 6
Source for ThermalNO updated
Time = 0.0464

DILUPBiCG:  Solving for NO, Initial residual = 2.01775e-05, Final residual = 3.97037e-10, No Iterations 6
Source for ThermalNO updated
Time = 0.0465

DILUPBiCG:  Solving for NO, Initial residual = 2.01228e-05, Final residual = 3.91136e-10, No Iterations 6
Source for ThermalNO updated
Time = 0.0466

DILUPBiCG:  Solving for NO, Initial residual = 2.00684e-05, Final residual = 3.85327e-10, No Iterations 6
Source for ThermalNO updated
Time = 0.0467

DILUPBiCG:  Solving for NO, Initial residual = 2.00141e-05, Final residual = 3.7961e-10, No Iterations 6
Source for ThermalNO updated
Time = 0.0468

DILUPBiCG:  Solving for NO, Initial residual = 1.996e-05, Final residual = 3.73985e-10, No Iterations 6
Source for ThermalNO updated
Time = 0.0469

DILUPBiCG:  Solving for NO, Initial residual = 1.99061e-05, Final residual = 3.68452e-10, No Iterations 6
Source for ThermalNO updated
Time = 0.047

DILUPBiCG:  Solving for NO, Initial residual = 1.98523e-05, Final residual = 3.63011e-10, No Iterations 6
Source for ThermalNO updated
Time = 0.0471

DILUPBiCG:  Solving for NO, Initial residual = 1.97988e-05, Final residual = 3.57661e-10, No Iterations 6
Source for ThermalNO updated
Time = 0.0472

DILUPBiCG:  Solving for NO, Initial residual = 1.97454e-05, Final residual = 3.52402e-10, No Iterations 6
Source for ThermalNO updated
Time = 0.0473

DILUPBiCG:  Solving for NO, Initial residual = 1.96923e-05, Final residual = 3.47234e-10, No Iterations 6
Source for ThermalNO updated
Time = 0.0474

DILUPBiCG:  Solving for NO, Initial residual = 1.96393e-05, Final residual = 3.42156e-10, No Iterations 6
Source for ThermalNO updated
Time = 0.0475

DILUPBiCG:  Solving for NO, Initial residual = 1.95865e-05, Final residual = 3.37168e-10, No Iterations 6
Source for ThermalNO updated
Time = 0.0476

DILUPBiCG:  Solving for NO, Initial residual = 1.95338e-05, Final residual = 3.32269e-10, No Iterations 6
Source for ThermalNO updated
Time = 0.0477

DILUPBiCG:  Solving for NO, Initial residual = 1.94814e-05, Final residual = 3.27457e-10, No Iterations 6
Source for ThermalNO updated
Time = 0.0478

DILUPBiCG:  Solving for NO, Initial residual = 1.94291e-05, Final residual = 3.22734e-10, No Iterations 6
Source for ThermalNO updated
Time = 0.0479

DILUPBiCG:  Solving for NO, Initial residual = 1.9377e-05, Final residual = 3.18096e-10, No Iterations 6
Source for ThermalNO updated
Time = 0.048

DILUPBiCG:  Solving for NO, Initial residual = 1.93251e-05, Final residual = 3.13545e-10, No Iterations 6
Source for ThermalNO updated
Time = 0.0481

DILUPBiCG:  Solving for NO, Initial residual = 1.92734e-05, Final residual = 3.09078e-10, No Iterations 6
Source for ThermalNO updated
Time = 0.0482

DILUPBiCG:  Solving for NO, Initial residual = 1.92218e-05, Final residual = 3.04694e-10, No Iterations 6
Source for ThermalNO updated
Time = 0.0483

DILUPBiCG:  Solving for NO, Initial residual = 1.91704e-05, Final residual = 3.00394e-10, No Iterations 6
Source for ThermalNO updated
Time = 0.0484

DILUPBiCG:  Solving for NO, Initial residual = 1.91192e-05, Final residual = 2.96176e-10, No Iterations 6
Source for ThermalNO updated
Time = 0.0485

DILUPBiCG:  Solving for NO, Initial residual = 1.90682e-05, Final residual = 2.92039e-10, No Iterations 6
Source for ThermalNO updated
Time = 0.0486

DILUPBiCG:  Solving for NO, Initial residual = 1.90173e-05, Final residual = 2.87982e-10, No Iterations 6
Source for ThermalNO updated
Time = 0.0487

DILUPBiCG:  Solving for NO, Initial residual = 1.89666e-05, Final residual = 2.84003e-10, No Iterations 6
Source for ThermalNO updated
Time = 0.0488

DILUPBiCG:  Solving for NO, Initial residual = 1.89161e-05, Final residual = 2.80102e-10, No Iterations 6
Source for ThermalNO updated
Time = 0.0489

DILUPBiCG:  Solving for NO, Initial residual = 1.88657e-05, Final residual = 2.76277e-10, No Iterations 6
Source for ThermalNO updated
Time = 0.049

DILUPBiCG:  Solving for NO, Initial residual = 1.88155e-05, Final residual = 2.72527e-10, No Iterations 6
Source for ThermalNO updated
Time = 0.0491

DILUPBiCG:  Solving for NO, Initial residual = 1.87655e-05, Final residual = 2.68851e-10, No Iterations 6
Source for ThermalNO updated
Time = 0.0492

DILUPBiCG:  Solving for NO, Initial residual = 1.87156e-05, Final residual = 2.65249e-10, No Iterations 6
Source for ThermalNO updated
Time = 0.0493

DILUPBiCG:  Solving for NO, Initial residual = 1.8666e-05, Final residual = 2.61718e-10, No Iterations 6
Source for ThermalNO updated
Time = 0.0494

DILUPBiCG:  Solving for NO, Initial residual = 1.86164e-05, Final residual = 2.58258e-10, No Iterations 6
Source for ThermalNO updated
Time = 0.0495

DILUPBiCG:  Solving for NO, Initial residual = 1.85671e-05, Final residual = 2.54867e-10, No Iterations 6
Source for ThermalNO updated
Time = 0.0496

DILUPBiCG:  Solving for NO, Initial residual = 1.85179e-05, Final residual = 2.51546e-10, No Iterations 6
Source for ThermalNO updated
Time = 0.0497

DILUPBiCG:  Solving for NO, Initial residual = 1.84689e-05, Final residual = 2.48291e-10, No Iterations 6
Source for ThermalNO updated
Time = 0.0498

DILUPBiCG:  Solving for NO, Initial residual = 1.842e-05, Final residual = 2.45103e-10, No Iterations 6
Source for ThermalNO updated
Time = 0.0499

DILUPBiCG:  Solving for NO, Initial residual = 1.83713e-05, Final residual = 2.41981e-10, No Iterations 6
Source for ThermalNO updated
Time = 0.05

DILUPBiCG:  Solving for NO, Initial residual = 1.83228e-05, Final residual = 2.38922e-10, No Iterations 6
Source for ThermalNO updated
Time = 0.0501

DILUPBiCG:  Solving for NO, Initial residual = 1.82744e-05, Final residual = 2.35926e-10, No Iterations 6
Source for ThermalNO updated
Time = 0.0502

DILUPBiCG:  Solving for NO, Initial residual = 1.82262e-05, Final residual = 2.32992e-10, No Iterations 6
Source for ThermalNO updated
Time = 0.0503

DILUPBiCG:  Solving for NO, Initial residual = 1.81782e-05, Final residual = 2.30119e-10, No Iterations 6
Source for ThermalNO updated
Time = 0.0504

DILUPBiCG:  Solving for NO, Initial residual = 1.81303e-05, Final residual = 2.27304e-10, No Iterations 6
Source for ThermalNO updated
Time = 0.0505

DILUPBiCG:  Solving for NO, Initial residual = 1.80826e-05, Final residual = 2.24549e-10, No Iterations 6
Source for ThermalNO updated
Time = 0.0506

DILUPBiCG:  Solving for NO, Initial residual = 1.8035e-05, Final residual = 2.21851e-10, No Iterations 6
Source for ThermalNO updated
Time = 0.0507

DILUPBiCG:  Solving for NO, Initial residual = 1.79876e-05, Final residual = 2.1921e-10, No Iterations 6
Source for ThermalNO updated
Time = 0.0508

DILUPBiCG:  Solving for NO, Initial residual = 1.79404e-05, Final residual = 2.16628e-10, No Iterations 6
Source for ThermalNO updated
Time = 0.0509

DILUPBiCG:  Solving for NO, Initial residual = 1.78933e-05, Final residual = 2.14103e-10, No Iterations 6
Source for ThermalNO updated
Time = 0.051

DILUPBiCG:  Solving for NO, Initial residual = 1.78463e-05, Final residual = 2.11633e-10, No Iterations 6
Source for ThermalNO updated
Time = 0.0511

DILUPBiCG:  Solving for NO, Initial residual = 1.77995e-05, Final residual = 2.09218e-10, No Iterations 6
Source for ThermalNO updated
Time = 0.0512

DILUPBiCG:  Solving for NO, Initial residual = 1.77529e-05, Final residual = 2.06855e-10, No Iterations 6
Source for ThermalNO updated
Time = 0.0513

DILUPBiCG:  Solving for NO, Initial residual = 1.77064e-05, Final residual = 2.04545e-10, No Iterations 6
Source for ThermalNO updated
Time = 0.0514

DILUPBiCG:  Solving for NO, Initial residual = 1.76601e-05, Final residual = 2.02286e-10, No Iterations 6
Source for ThermalNO updated
Time = 0.0515

DILUPBiCG:  Solving for NO, Initial residual = 1.7614e-05, Final residual = 2.00077e-10, No Iterations 6
Source for ThermalNO updated
Time = 0.0516

DILUPBiCG:  Solving for NO, Initial residual = 1.7568e-05, Final residual = 1.97915e-10, No Iterations 6
Source for ThermalNO updated
Time = 0.0517

DILUPBiCG:  Solving for NO, Initial residual = 1.75221e-05, Final residual = 1.95801e-10, No Iterations 6
Source for ThermalNO updated
Time = 0.0518

DILUPBiCG:  Solving for NO, Initial residual = 1.74764e-05, Final residual = 1.93735e-10, No Iterations 6
Source for ThermalNO updated
Time = 0.0519

DILUPBiCG:  Solving for NO, Initial residual = 1.74308e-05, Final residual = 1.91713e-10, No Iterations 6
Source for ThermalNO updated
Time = 0.052

DILUPBiCG:  Solving for NO, Initial residual = 1.73854e-05, Final residual = 1.89737e-10, No Iterations 6
Source for ThermalNO updated
Time = 0.0521

DILUPBiCG:  Solving for NO, Initial residual = 1.73402e-05, Final residual = 1.87805e-10, No Iterations 6
[...]
Source for ThermalNO updated
Time = 0.9868

DILUPBiCG:  Solving for NO, Initial residual = 9.98337e-10, Final residual = 9.98337e-10, No Iterations 0
Source for ThermalNO updated
Time = 0.9869

DILUPBiCG:  Solving for NO, Initial residual = 9.98337e-10, Final residual = 9.98337e-10, No Iterations 0
Source for ThermalNO updated
Time = 0.987

DILUPBiCG:  Solving for NO, Initial residual = 9.98337e-10, Final residual = 9.98337e-10, No Iterations 0
Source for ThermalNO updated
Time = 0.9871

DILUPBiCG:  Solving for NO, Initial residual = 9.98337e-10, Final residual = 9.98337e-10, No Iterations 0
Source for ThermalNO updated
Time = 0.9872

DILUPBiCG:  Solving for NO, Initial residual = 9.98337e-10, Final residual = 9.98337e-10, No Iterations 0
Source for ThermalNO updated
Time = 0.9873

DILUPBiCG:  Solving for NO, Initial residual = 9.98337e-10, Final residual = 9.98337e-10, No Iterations 0
Source for ThermalNO updated
Time = 0.9874

DILUPBiCG:  Solving for NO, Initial residual = 9.98337e-10, Final residual = 9.98337e-10, No Iterations 0
Source for ThermalNO updated
Time = 0.9875

DILUPBiCG:  Solving for NO, Initial residual = 9.98337e-10, Final residual = 9.98337e-10, No Iterations 0
Source for ThermalNO updated
Time = 0.9876

DILUPBiCG:  Solving for NO, Initial residual = 9.98337e-10, Final residual = 9.98337e-10, No Iterations 0
Source for ThermalNO updated
Time = 0.9877

DILUPBiCG:  Solving for NO, Initial residual = 9.98337e-10, Final residual = 9.98337e-10, No Iterations 0
Source for ThermalNO updated
Time = 0.9878

DILUPBiCG:  Solving for NO, Initial residual = 9.98337e-10, Final residual = 9.98337e-10, No Iterations 0
Source for ThermalNO updated
Time = 0.9879

DILUPBiCG:  Solving for NO, Initial residual = 9.98337e-10, Final residual = 9.98337e-10, No Iterations 0
Source for ThermalNO updated
Time = 0.988

DILUPBiCG:  Solving for NO, Initial residual = 9.98337e-10, Final residual = 9.98337e-10, No Iterations 0
Source for ThermalNO updated
Time = 0.9881

DILUPBiCG:  Solving for NO, Initial residual = 9.98337e-10, Final residual = 9.98337e-10, No Iterations 0
Source for ThermalNO updated
Time = 0.9882

DILUPBiCG:  Solving for NO, Initial residual = 9.98337e-10, Final residual = 9.98337e-10, No Iterations 0
Source for ThermalNO updated
Time = 0.9883

DILUPBiCG:  Solving for NO, Initial residual = 9.98337e-10, Final residual = 9.98337e-10, No Iterations 0
Source for ThermalNO updated
Time = 0.9884

DILUPBiCG:  Solving for NO, Initial residual = 9.98337e-10, Final residual = 9.98337e-10, No Iterations 0
Source for ThermalNO updated
Time = 0.9885

DILUPBiCG:  Solving for NO, Initial residual = 9.98337e-10, Final residual = 9.98337e-10, No Iterations 0
Source for ThermalNO updated
Time = 0.9886

DILUPBiCG:  Solving for NO, Initial residual = 9.98337e-10, Final residual = 9.98337e-10, No Iterations 0
Source for ThermalNO updated
Time = 0.9887

DILUPBiCG:  Solving for NO, Initial residual = 9.98337e-10, Final residual = 9.98337e-10, No Iterations 0
Source for ThermalNO updated
Time = 0.9888

DILUPBiCG:  Solving for NO, Initial residual = 9.98337e-10, Final residual = 9.98337e-10, No Iterations 0
Source for ThermalNO updated
Time = 0.9889

DILUPBiCG:  Solving for NO, Initial residual = 9.98337e-10, Final residual = 9.98337e-10, No Iterations 0
Source for ThermalNO updated
Time = 0.989

DILUPBiCG:  Solving for NO, Initial residual = 9.98337e-10, Final residual = 9.98337e-10, No Iterations 0
Source for ThermalNO updated
Time = 0.9891

DILUPBiCG:  Solving for NO, Initial residual = 9.98337e-10, Final residual = 9.98337e-10, No Iterations 0
Source for ThermalNO updated
Time = 0.9892

DILUPBiCG:  Solving for NO, Initial residual = 9.98337e-10, Final residual = 9.98337e-10, No Iterations 0
Source for ThermalNO updated
Time = 0.9893

DILUPBiCG:  Solving for NO, Initial residual = 9.98337e-10, Final residual = 9.98337e-10, No Iterations 0
Source for ThermalNO updated
Time = 0.9894

DILUPBiCG:  Solving for NO, Initial residual = 9.98337e-10, Final residual = 9.98337e-10, No Iterations 0
Source for ThermalNO updated
Time = 0.9895

DILUPBiCG:  Solving for NO, Initial residual = 9.98337e-10, Final residual = 9.98337e-10, No Iterations 0
Source for ThermalNO updated
Time = 0.9896

DILUPBiCG:  Solving for NO, Initial residual = 9.98337e-10, Final residual = 9.98337e-10, No Iterations 0
Source for ThermalNO updated
Time = 0.9897

DILUPBiCG:  Solving for NO, Initial residual = 9.98337e-10, Final residual = 9.98337e-10, No Iterations 0
Source for ThermalNO updated
Time = 0.9898

DILUPBiCG:  Solving for NO, Initial residual = 9.98337e-10, Final residual = 9.98337e-10, No Iterations 0
Source for ThermalNO updated
Time = 0.9899

DILUPBiCG:  Solving for NO, Initial residual = 9.98337e-10, Final residual = 9.98337e-10, No Iterations 0
Source for ThermalNO updated
Time = 0.99

DILUPBiCG:  Solving for NO, Initial residual = 9.98337e-10, Final residual = 9.98337e-10, No Iterations 0
Source for ThermalNO updated
Time = 0.9901

DILUPBiCG:  Solving for NO, Initial residual = 9.98337e-10, Final residual = 9.98337e-10, No Iterations 0
Source for ThermalNO updated
Time = 0.9902

DILUPBiCG:  Solving for NO, Initial residual = 9.98337e-10, Final residual = 9.98337e-10, No Iterations 0
Source for ThermalNO updated
Time = 0.9903

DILUPBiCG:  Solving for NO, Initial residual = 9.98337e-10, Final residual = 9.98337e-10, No Iterations 0
Source for ThermalNO updated
Time = 0.9904

DILUPBiCG:  Solving for NO, Initial residual = 9.98337e-10, Final residual = 9.98337e-10, No Iterations 0
Source for ThermalNO updated
Time = 0.9905

DILUPBiCG:  Solving for NO, Initial residual = 9.98337e-10, Final residual = 9.98337e-10, No Iterations 0
Source for ThermalNO updated
Time = 0.9906

DILUPBiCG:  Solving for NO, Initial residual = 9.98337e-10, Final residual = 9.98337e-10, No Iterations 0
Source for ThermalNO updated
Time = 0.9907

DILUPBiCG:  Solving for NO, Initial residual = 9.98337e-10, Final residual = 9.98337e-10, No Iterations 0
Source for ThermalNO updated
Time = 0.9908

DILUPBiCG:  Solving for NO, Initial residual = 9.98337e-10, Final residual = 9.98337e-10, No Iterations 0
Source for ThermalNO updated
Time = 0.9909

DILUPBiCG:  Solving for NO, Initial residual = 9.98337e-10, Final residual = 9.98337e-10, No Iterations 0
Source for ThermalNO updated
Time = 0.991

DILUPBiCG:  Solving for NO, Initial residual = 9.98337e-10, Final residual = 9.98337e-10, No Iterations 0
Source for ThermalNO updated
Time = 0.9911

DILUPBiCG:  Solving for NO, Initial residual = 9.98337e-10, Final residual = 9.98337e-10, No Iterations 0
Source for ThermalNO updated
Time = 0.9912

DILUPBiCG:  Solving for NO, Initial residual = 9.98337e-10, Final residual = 9.98337e-10, No Iterations 0
Source for ThermalNO updated
Time = 0.9913

DILUPBiCG:  Solving for NO, Initial residual = 9.98337e-10, Final residual = 9.98337e-10, No Iterations 0
Source for ThermalNO updated
Time = 0.9914

DILUPBiCG:  Solving for NO, Initial residual = 9.98337e-10, Final residual = 9.98337e-10, No Iterations 0
Source for ThermalNO updated
Time = 0.9915

DILUPBiCG:  Solving for NO, Initial residual = 9.98337e-10, Final residual = 9.98337e-10, No Iterations 0
Source for ThermalNO updated
Time = 0.9916

DILUPBiCG:  Solving for NO, Initial residual = 9.98337e-10, Final residual = 9.98337e-10, No Iterations 0
Source for ThermalNO updated
Time = 0.9917

DILUPBiCG:  Solving for NO, Initial residual = 9.98337e-10, Final residual = 9.98337e-10, No Iterations 0
Source for ThermalNO updated
Time = 0.9918

DILUPBiCG:  Solving for NO, Initial residual = 9.98337e-10, Final residual = 9.98337e-10, No Iterations 0
Source for ThermalNO updated
Time = 0.9919

DILUPBiCG:  Solving for NO, Initial residual = 9.98337e-10, Final residual = 9.98337e-10, No Iterations 0
Source for ThermalNO updated
Time = 0.992

DILUPBiCG:  Solving for NO, Initial residual = 9.98337e-10, Final residual = 9.98337e-10, No Iterations 0
Source for ThermalNO updated
Time = 0.9921

DILUPBiCG:  Solving for NO, Initial residual = 9.98337e-10, Final residual = 9.98337e-10, No Iterations 0
Source for ThermalNO updated
Time = 0.9922

DILUPBiCG:  Solving for NO, Initial residual = 9.98337e-10, Final residual = 9.98337e-10, No Iterations 0
Source for ThermalNO updated
Time = 0.9923

DILUPBiCG:  Solving for NO, Initial residual = 9.98337e-10, Final residual = 9.98337e-10, No Iterations 0
Source for ThermalNO updated
Time = 0.9924

DILUPBiCG:  Solving for NO, Initial residual = 9.98337e-10, Final residual = 9.98337e-10, No Iterations 0
Source for ThermalNO updated
Time = 0.9925

DILUPBiCG:  Solving for NO, Initial residual = 9.98337e-10, Final residual = 9.98337e-10, No Iterations 0
Source for ThermalNO updated
Time = 0.9926

DILUPBiCG:  Solving for NO, Initial residual = 9.98337e-10, Final residual = 9.98337e-10, No Iterations 0
Source for ThermalNO updated
Time = 0.9927

DILUPBiCG:  Solving for NO, Initial residual = 9.98337e-10, Final residual = 9.98337e-10, No Iterations 0
Source for ThermalNO updated
Time = 0.9928

DILUPBiCG:  Solving for NO, Initial residual = 9.98337e-10, Final residual = 9.98337e-10, No Iterations 0
Source for ThermalNO updated
Time = 0.9929

DILUPBiCG:  Solving for NO, Initial residual = 9.98337e-10, Final residual = 9.98337e-10, No Iterations 0
Source for ThermalNO updated
Time = 0.993

DILUPBiCG:  Solving for NO, Initial residual = 9.98337e-10, Final residual = 9.98337e-10, No Iterations 0
Source for ThermalNO updated
Time = 0.9931

DILUPBiCG:  Solving for NO, Initial residual = 9.98337e-10, Final residual = 9.98337e-10, No Iterations 0
Source for ThermalNO updated
Time = 0.9932

DILUPBiCG:  Solving for NO, Initial residual = 9.98337e-10, Final residual = 9.98337e-10, No Iterations 0
Source for ThermalNO updated
Time = 0.9933

DILUPBiCG:  Solving for NO, Initial residual = 9.98337e-10, Final residual = 9.98337e-10, No Iterations 0
Source for ThermalNO updated
Time = 0.9934

DILUPBiCG:  Solving for NO, Initial residual = 9.98337e-10, Final residual = 9.98337e-10, No Iterations 0
Source for ThermalNO updated
Time = 0.9935

DILUPBiCG:  Solving for NO, Initial residual = 9.98337e-10, Final residual = 9.98337e-10, No Iterations 0
Source for ThermalNO updated
Time = 0.9936

DILUPBiCG:  Solving for NO, Initial residual = 9.98337e-10, Final residual = 9.98337e-10, No Iterations 0
Source for ThermalNO updated
Time = 0.9937

DILUPBiCG:  Solving for NO, Initial residual = 9.98337e-10, Final residual = 9.98337e-10, No Iterations 0
Source for ThermalNO updated
Time = 0.9938

DILUPBiCG:  Solving for NO, Initial residual = 9.98337e-10, Final residual = 9.98337e-10, No Iterations 0
Source for ThermalNO updated
Time = 0.9939

DILUPBiCG:  Solving for NO, Initial residual = 9.98337e-10, Final residual = 9.98337e-10, No Iterations 0
Source for ThermalNO updated
Time = 0.994

DILUPBiCG:  Solving for NO, Initial residual = 9.98337e-10, Final residual = 9.98337e-10, No Iterations 0
Source for ThermalNO updated
Time = 0.9941

DILUPBiCG:  Solving for NO, Initial residual = 9.98337e-10, Final residual = 9.98337e-10, No Iterations 0
Source for ThermalNO updated
Time = 0.9942

DILUPBiCG:  Solving for NO, Initial residual = 9.98337e-10, Final residual = 9.98337e-10, No Iterations 0
Source for ThermalNO updated
Time = 0.9943

DILUPBiCG:  Solving for NO, Initial residual = 9.98337e-10, Final residual = 9.98337e-10, No Iterations 0
Source for ThermalNO updated
Time = 0.9944

DILUPBiCG:  Solving for NO, Initial residual = 9.98337e-10, Final residual = 9.98337e-10, No Iterations 0
Source for ThermalNO updated
Time = 0.9945

DILUPBiCG:  Solving for NO, Initial residual = 9.98337e-10, Final residual = 9.98337e-10, No Iterations 0
Source for ThermalNO updated
Time = 0.9946

DILUPBiCG:  Solving for NO, Initial residual = 9.98337e-10, Final residual = 9.98337e-10, No Iterations 0
Source for ThermalNO updated
Time = 0.9947

DILUPBiCG:  Solving for NO, Initial residual = 9.98337e-10, Final residual = 9.98337e-10, No Iterations 0
Source for ThermalNO updated
Time = 0.9948

DILUPBiCG:  Solving for NO, Initial residual = 9.98337e-10, Final residual = 9.98337e-10, No Iterations 0
Source for ThermalNO updated
Time = 0.9949

DILUPBiCG:  Solving for NO, Initial residual = 9.98337e-10, Final residual = 9.98337e-10, No Iterations 0
Source for ThermalNO updated
Time = 0.995

DILUPBiCG:  Solving for NO, Initial residual = 9.98337e-10, Final residual = 9.98337e-10, No Iterations 0
Source for ThermalNO updated
Time = 0.9951

DILUPBiCG:  Solving for NO, Initial residual = 9.98337e-10, Final residual = 9.98337e-10, No Iterations 0
Source for ThermalNO updated
Time = 0.9952

DILUPBiCG:  Solving for NO, Initial residual = 9.98337e-10, Final residual = 9.98337e-10, No Iterations 0
Source for ThermalNO updated
Time = 0.9953

DILUPBiCG:  Solving for NO, Initial residual = 9.98337e-10, Final residual = 9.98337e-10, No Iterations 0
Source for ThermalNO updated
Time = 0.9954

DILUPBiCG:  Solving for NO, Initial residual = 9.98337e-10, Final residual = 9.98337e-10, No Iterations 0
Source for ThermalNO updated
Time = 0.9955

DILUPBiCG:  Solving for NO, Initial residual = 9.98337e-10, Final residual = 9.98337e-10, No Iterations 0
Source for ThermalNO updated
Time = 0.9956

DILUPBiCG:  Solving for NO, Initial residual = 9.98337e-10, Final residual = 9.98337e-10, No Iterations 0
Source for ThermalNO updated
Time = 0.9957

DILUPBiCG:  Solving for NO, Initial residual = 9.98337e-10, Final residual = 9.98337e-10, No Iterations 0
Source for ThermalNO updated
Time = 0.9958

DILUPBiCG:  Solving for NO, Initial residual = 9.98337e-10, Final residual = 9.98337e-10, No Iterations 0
Source for ThermalNO updated
Time = 0.9959

DILUPBiCG:  Solving for NO, Initial residual = 9.98337e-10, Final residual = 9.98337e-10, No Iterations 0
Source for ThermalNO updated
Time = 0.996

DILUPBiCG:  Solving for NO, Initial residual = 9.98337e-10, Final residual = 9.98337e-10, No Iterations 0
Source for ThermalNO updated
Time = 0.9961

DILUPBiCG:  Solving for NO, Initial residual = 9.98337e-10, Final residual = 9.98337e-10, No Iterations 0
Source for ThermalNO updated
Time = 0.9962

DILUPBiCG:  Solving for NO, Initial residual = 9.98337e-10, Final residual = 9.98337e-10, No Iterations 0
Source for ThermalNO updated
Time = 0.9963

DILUPBiCG:  Solving for NO, Initial residual = 9.98337e-10, Final residual = 9.98337e-10, No Iterations 0
Source for ThermalNO updated
Time = 0.9964

DILUPBiCG:  Solving for NO, Initial residual = 9.98337e-10, Final residual = 9.98337e-10, No Iterations 0
Source for ThermalNO updated
Time = 0.9965

DILUPBiCG:  Solving for NO, Initial residual = 9.98337e-10, Final residual = 9.98337e-10, No Iterations 0
Source for ThermalNO updated
Time = 0.9966

DILUPBiCG:  Solving for NO, Initial residual = 9.98337e-10, Final residual = 9.98337e-10, No Iterations 0
Source for ThermalNO updated
Time = 0.9967

DILUPBiCG:  Solving for NO, Initial residual = 9.98337e-10, Final residual = 9.98337e-10, No Iterations 0
Source for ThermalNO updated
Time = 0.9968

DILUPBiCG:  Solving for NO, Initial residual = 9.98337e-10, Final residual = 9.98337e-10, No Iterations 0
Source for ThermalNO updated
Time = 0.9969

DILUPBiCG:  Solving for NO, Initial residual = 9.98337e-10, Final residual = 9.98337e-10, No Iterations 0
Source for ThermalNO updated
Time = 0.997

DILUPBiCG:  Solving for NO, Initial residual = 9.98337e-10, Final residual = 9.98337e-10, No Iterations 0
Source for ThermalNO updated
Time = 0.9971

DILUPBiCG:  Solving for NO, Initial residual = 9.98337e-10, Final residual = 9.98337e-10, No Iterations 0
Source for ThermalNO updated
Time = 0.9972

DILUPBiCG:  Solving for NO, Initial residual = 9.98337e-10, Final residual = 9.98337e-10, No Iterations 0
Source for ThermalNO updated
Time = 0.9973

DILUPBiCG:  Solving for NO, Initial residual = 9.98337e-10, Final residual = 9.98337e-10, No Iterations 0
Source for ThermalNO updated
Time = 0.9974

DILUPBiCG:  Solving for NO, Initial residual = 9.98337e-10, Final residual = 9.98337e-10, No Iterations 0
Source for ThermalNO updated
Time = 0.9975

DILUPBiCG:  Solving for NO, Initial residual = 9.98337e-10, Final residual = 9.98337e-10, No Iterations 0
Source for ThermalNO updated
Time = 0.9976

DILUPBiCG:  Solving for NO, Initial residual = 9.98337e-10, Final residual = 9.98337e-10, No Iterations 0
Source for ThermalNO updated
Time = 0.9977

DILUPBiCG:  Solving for NO, Initial residual = 9.98337e-10, Final residual = 9.98337e-10, No Iterations 0
Source for ThermalNO updated
Time = 0.9978

DILUPBiCG:  Solving for NO, Initial residual = 9.98337e-10, Final residual = 9.98337e-10, No Iterations 0
Source for ThermalNO updated
Time = 0.9979

DILUPBiCG:  Solving for NO, Initial residual = 9.98337e-10, Final residual = 9.98337e-10, No Iterations 0
Source for ThermalNO updated
Time = 0.998

DILUPBiCG:  Solving for NO, Initial residual = 9.98337e-10, Final residual = 9.98337e-10, No Iterations 0
Source for ThermalNO updated
Time = 0.9981

DILUPBiCG:  Solving for NO, Initial residual = 9.98337e-10, Final residual = 9.98337e-10, No Iterations 0
Source for ThermalNO updated
Time = 0.9982

DILUPBiCG:  Solving for NO, Initial residual = 9.98337e-10, Final residual = 9.98337e-10, No Iterations 0
Source for ThermalNO updated
Time = 0.9983

DILUPBiCG:  Solving for NO, Initial residual = 9.98337e-10, Final residual = 9.98337e-10, No Iterations 0
Source for ThermalNO updated
Time = 0.9984

DILUPBiCG:  Solving for NO, Initial residual = 9.98337e-10, Final residual = 9.98337e-10, No Iterations 0
Source for ThermalNO updated
Time = 0.9985

DILUPBiCG:  Solving for NO, Initial residual = 9.98337e-10, Final residual = 9.98337e-10, No Iterations 0
Source for ThermalNO updated
Time = 0.9986

DILUPBiCG:  Solving for NO, Initial residual = 9.98337e-10, Final residual = 9.98337e-10, No Iterations 0
Source for ThermalNO updated
Time = 0.9987

DILUPBiCG:  Solving for NO, Initial residual = 9.98337e-10, Final residual = 9.98337e-10, No Iterations 0
Source for ThermalNO updated
Time = 0.9988

DILUPBiCG:  Solving for NO, Initial residual = 9.98337e-10, Final residual = 9.98337e-10, No Iterations 0
Source for ThermalNO updated
Time = 0.9989

DILUPBiCG:  Solving for NO, Initial residual = 9.98337e-10, Final residual = 9.98337e-10, No Iterations 0
Source for ThermalNO updated
Time = 0.999

DILUPBiCG:  Solving for NO, Initial residual = 9.98337e-10, Final residual = 9.98337e-10, No Iterations 0
Source for ThermalNO updated
Time = 0.9991

DILUPBiCG:  Solving for NO, Initial residual = 9.98337e-10, Final residual = 9.98337e-10, No Iterations 0
Source for ThermalNO updated
Time = 0.9992

DILUPBiCG:  Solving for NO, Initial residual = 9.98337e-10, Final residual = 9.98337e-10, No Iterations 0
Source for ThermalNO updated
Time = 0.9993

DILUPBiCG:  Solving for NO, Initial residual = 9.98337e-10, Final residual = 9.98337e-10, No Iterations 0
Source for ThermalNO updated
Time = 0.9994

DILUPBiCG:  Solving for NO, Initial residual = 9.98337e-10, Final residual = 9.98337e-10, No Iterations 0
Source for ThermalNO updated
Time = 0.9995

DILUPBiCG:  Solving for NO, Initial residual = 9.98337e-10, Final residual = 9.98337e-10, No Iterations 0
Source for ThermalNO updated
Time = 0.9996

DILUPBiCG:  Solving for NO, Initial residual = 9.98337e-10, Final residual = 9.98337e-10, No Iterations 0
Source for ThermalNO updated
Time = 0.9997

DILUPBiCG:  Solving for NO, Initial residual = 9.98337e-10, Final residual = 9.98337e-10, No Iterations 0
Source for ThermalNO updated
Time = 0.9998

DILUPBiCG:  Solving for NO, Initial residual = 9.98337e-10, Final residual = 9.98337e-10, No Iterations 0
Source for ThermalNO updated
Time = 0.9999

DILUPBiCG:  Solving for NO, Initial residual = 9.98337e-10, Final residual = 9.98337e-10, No Iterations 0
Source for ThermalNO updated
Time = 1

DILUPBiCG:  Solving for NO, Initial residual = 9.98337e-10, Final residual = 9.98337e-10, No Iterations 0
Source for ThermalNO updated
End

